<?xml version="1.0" encoding="UTF-8"?>

<!-- generated on 2026-01-09T00:06:14.917706+08:00 by Eclipse SUMO netedit 1.25.0
<neteditConfiguration xmlns:xsi="http://www.w3.org/2001/XMLSchema-instance" xsi:noNamespaceSchemaLocation="http://sumo.dlr.de/xsd/neteditConfiguration.xsd">

    <input>
        <sumo-net-file value="final_map.net.xml"/>
    </input>

    <output>
        <output-file value="final_map.net.xml"/>
        <output.street-names value="true"/>
    </output>

    <processing>
        <geometry.min-radius.fix.railways value="false"/>
        <geometry.avoid-overlap value="false"/>
        <geometry.max-grade.fix value="false"/>
        <offset.disable-normalization value="true"/>
        <lefthand value="0"/>
    </processing>

    <junctions>
        <no-turnarounds value="true"/>
        <junctions.corner-detail value="5"/>
        <junctions.limit-turn-speed value="5.50"/>
        <rectangular-lane-cut value="0"/>
    </junctions>

    <pedestrian>
        <walkingareas value="0"/>
    </pedestrian>

</neteditConfiguration>
-->

<net version="1.20" junctionCornerDetail="5" limitTurnSpeed="5.50" avoidOverlap="0" xmlns:xsi="http://www.w3.org/2001/XMLSchema-instance" xsi:noNamespaceSchemaLocation="http://sumo.dlr.de/xsd/net_file.xsd">

    <location netOffset="-289715.78,-1609696.70" convBoundary="0.00,1.10,724.19,466.01" origBoundary="121.048315,14.552214,121.055029,14.556568" projParameter="+proj=utm +zone=51 +ellps=WGS84 +datum=WGS84 +units=m +no_defs"/>

    <type id="highway.residential" priority="3" numLanes="1" speed="13.89" disallow="tram rail_urban rail rail_electric rail_fast ship container cable_car subway aircraft wheelchair scooter drone" oneway="0"/>
    <type id="highway.secondary" priority="11" numLanes="1" speed="27.78" disallow="tram rail_urban rail rail_electric rail_fast ship container cable_car subway aircraft wheelchair scooter drone" oneway="0"/>
    <type id="highway.tertiary" priority="10" numLanes="1" speed="22.22" disallow="tram rail_urban rail rail_electric rail_fast ship container cable_car subway aircraft wheelchair scooter drone" oneway="0"/>
    <type id="highway.unclassified" priority="4" numLanes="1" speed="13.89" disallow="tram rail_urban rail rail_electric rail_fast ship container cable_car subway aircraft wheelchair scooter drone" oneway="0"/>

    <edge id=":10732022752_0" function="internal">
        <lane id=":10732022752_0_0" index="0" disallow="tram rail_urban rail rail_electric rail_fast ship container cable_car subway aircraft wheelchair scooter drone" speed="8.33" length="0.30" shape="92.45,172.85 92.35,172.56"/>
        <lane id=":10732022752_0_1" index="1" disallow="tram rail_urban rail rail_electric rail_fast ship container cable_car subway aircraft wheelchair scooter drone" speed="8.33" length="0.30" shape="95.49,171.86 95.40,171.57"/>
    </edge>
    <edge id=":10750415907_0" function="internal">
        <lane id=":10750415907_0_0" index="0" disallow="tram rail_urban rail rail_electric rail_fast ship container cable_car subway aircraft wheelchair scooter drone" speed="8.33" length="0.10" shape="165.96,112.54 165.96,112.54"/>
        <lane id=":10750415907_0_1" index="1" disallow="tram rail_urban rail rail_electric rail_fast ship container cable_car subway aircraft wheelchair scooter drone" speed="8.33" length="0.10" shape="167.00,115.56 167.00,115.56"/>
    </edge>
    <edge id=":1117858161_0" function="internal">
        <lane id=":1117858161_0_0" index="0" disallow="tram rail_urban rail rail_electric rail_fast ship container cable_car subway aircraft wheelchair scooter drone" speed="6.78" length="9.38" shape="590.05,182.80 588.91,180.62 587.28,179.29 585.16,178.79 582.55,179.14"/>
    </edge>
    <edge id=":1117858161_1" function="internal">
        <lane id=":1117858161_1_0" index="0" disallow="tram rail_urban rail rail_electric rail_fast ship container cable_car subway aircraft wheelchair scooter drone" speed="8.33" length="14.41" shape="590.05,182.80 585.40,169.16"/>
    </edge>
    <edge id=":1117858161_2" function="internal">
        <lane id=":1117858161_2_0" index="0" disallow="tram rail_urban rail rail_electric rail_fast ship container cable_car subway aircraft wheelchair scooter drone" speed="3.65" length="4.67" shape="590.05,182.80 590.42,181.41 591.04,180.77 591.93,180.89 593.08,181.77"/>
    </edge>
    <edge id=":1117858161_3" function="internal">
        <lane id=":1117858161_3_0" index="0" disallow="tram rail_urban rail rail_electric rail_fast ship container cable_car subway aircraft wheelchair scooter drone" speed="8.33" length="14.40" shape="588.43,168.13 593.08,181.77"/>
    </edge>
    <edge id=":1117858161_4" function="internal">
        <lane id=":1117858161_4_0" index="0" disallow="tram rail_urban rail rail_electric rail_fast ship container cable_car subway aircraft wheelchair scooter drone" speed="7.88" length="14.45" shape="588.43,168.13 589.17,172.06 588.43,175.20 586.23,177.56 582.55,179.14"/>
    </edge>
    <edge id=":1117858161_5" function="internal">
        <lane id=":1117858161_5_0" index="0" disallow="tram rail_urban rail rail_electric rail_fast ship container cable_car subway aircraft wheelchair scooter drone" speed="3.65" length="4.67" shape="588.43,168.13 588.06,169.53 587.43,170.16 586.54,170.04 585.40,169.16"/>
    </edge>
    <edge id=":1117858161_6" function="internal">
        <lane id=":1117858161_6_0" index="0" disallow="tram rail_urban rail rail_electric rail_fast ship container cable_car subway aircraft wheelchair scooter drone" speed="6.37" length="9.04" shape="581.72,176.05 584.02,175.06 585.40,173.59 585.86,171.62 585.40,169.16"/>
    </edge>
    <edge id=":1117858161_7" function="internal">
        <lane id=":1117858161_7_0" index="0" disallow="tram rail_urban rail rail_electric rail_fast ship container cable_car subway aircraft wheelchair scooter drone" speed="8.23" length="14.29" shape="581.72,176.05 585.66,175.54 588.86,176.32 591.34,178.40 593.08,181.77"/>
    </edge>
    <edge id=":1117858161_8" function="internal">
        <lane id=":1117858161_8_0" index="0" disallow="tram rail_urban rail rail_electric rail_fast ship container cable_car subway aircraft wheelchair scooter drone" speed="3.65" length="4.67" shape="581.72,176.05 583.09,176.51 583.68,177.18 583.50,178.05 582.55,179.14"/>
    </edge>
    <edge id=":1117858165_0" function="internal">
        <lane id=":1117858165_0_0" index="0" disallow="pedestrian tram rail_urban rail rail_electric rail_fast ship container cable_car subway aircraft wheelchair scooter drone" speed="22.22" length="9.67" shape="352.98,260.36 352.26,257.60 352.15,255.61 352.04,253.62 351.37,250.85"/>
        <lane id=":1117858165_0_1" index="1" disallow="pedestrian tram rail_urban rail rail_electric rail_fast ship container cable_car subway aircraft wheelchair scooter drone" speed="22.22" length="9.67" shape="355.99,259.29 355.28,256.54 355.17,254.56 355.07,252.58 354.40,249.82"/>
    </edge>
    <edge id=":1117858165_2" function="internal">
        <lane id=":1117858165_2_0" index="0" disallow="pedestrian tram rail_urban rail rail_electric rail_fast ship container cable_car subway aircraft wheelchair scooter drone" speed="6.07" length="7.80" shape="359.01,258.21 358.27,255.54 358.17,253.49 358.71,252.05 359.89,251.23"/>
    </edge>
    <edge id=":1117858165_3" function="internal">
        <lane id=":1117858165_3_0" index="0" disallow="pedestrian tram rail_urban rail rail_electric rail_fast ship container cable_car subway aircraft wheelchair scooter drone" speed="6.48" length="8.94" shape="360.92,254.26 358.82,254.56 357.04,253.92 355.56,252.34 354.40,249.82"/>
    </edge>
    <edge id=":1117858165_4" function="internal">
        <lane id=":1117858165_4_0" index="0" disallow="tram rail_urban rail rail_electric rail_fast ship container cable_car subway aircraft wheelchair scooter drone" speed="3.65" length="4.67" shape="360.92,254.26 359.52,253.89 358.89,253.26 359.01,252.38 359.89,251.23"/>
    </edge>
    <edge id=":1117858176_0" function="internal">
        <lane id=":1117858176_0_0" index="0" disallow="tram rail_urban rail rail_electric rail_fast ship container cable_car subway aircraft wheelchair scooter drone" speed="8.33" length="13.95" shape="526.66,198.38 513.49,202.98"/>
    </edge>
    <edge id=":1117858176_1" function="internal">
        <lane id=":1117858176_1_0" index="0" disallow="tram rail_urban rail rail_electric rail_fast ship container cable_car subway aircraft wheelchair scooter drone" speed="8.02" length="13.94" shape="526.66,198.38 522.92,199.04 519.83,198.36 517.40,196.33 515.62,192.97"/>
    </edge>
    <edge id=":1117858176_2" function="internal">
        <lane id=":1117858176_2_0" index="0" disallow="tram rail_urban rail rail_electric rail_fast ship container cable_car subway aircraft wheelchair scooter drone" speed="3.65" length="4.67" shape="526.66,198.38 525.27,198.00 524.65,197.36 524.78,196.48 525.67,195.34"/>
    </edge>
    <edge id=":1117858176_3" function="internal">
        <lane id=":1117858176_3_0" index="0" disallow="tram rail_urban rail rail_electric rail_fast ship container cable_car subway aircraft wheelchair scooter drone" speed="6.52" length="8.88" shape="518.63,191.89 519.77,194.03 521.32,195.33 523.28,195.76 525.67,195.34"/>
    </edge>
    <edge id=":1117858176_4" function="internal">
        <lane id=":1117858176_4_0" index="0" disallow="tram rail_urban rail rail_electric rail_fast ship container cable_car subway aircraft wheelchair scooter drone" speed="7.92" length="13.98" shape="518.63,191.89 519.43,195.68 518.83,198.80 516.86,201.23 513.49,202.98"/>
    </edge>
    <edge id=":1117858176_5" function="internal">
        <lane id=":1117858176_5_0" index="0" disallow="tram rail_urban rail rail_electric rail_fast ship container cable_car subway aircraft wheelchair scooter drone" speed="3.65" length="4.67" shape="518.63,191.89 518.29,193.29 517.67,193.93 516.78,193.83 515.62,192.97"/>
    </edge>
    <edge id=":1117858176_6" function="internal">
        <lane id=":1117858176_6_0" index="0" disallow="tram rail_urban rail rail_electric rail_fast ship container cable_car subway aircraft wheelchair scooter drone" speed="6.43" length="8.87" shape="512.34,200.00 514.48,198.88 515.74,197.34 516.12,195.37 515.62,192.97"/>
    </edge>
    <edge id=":1117858176_7" function="internal">
        <lane id=":1117858176_7_0" index="0" disallow="tram rail_urban rail rail_electric rail_fast ship container cable_car subway aircraft wheelchair scooter drone" speed="8.33" length="14.12" shape="512.34,200.00 525.67,195.34"/>
    </edge>
    <edge id=":1117858176_8" function="internal">
        <lane id=":1117858176_8_0" index="0" disallow="tram rail_urban rail rail_electric rail_fast ship container cable_car subway aircraft wheelchair scooter drone" speed="3.65" length="4.68" shape="512.34,200.00 513.75,200.31 514.41,200.91 514.32,201.80 513.49,202.98"/>
    </edge>
    <edge id=":1117858182_0" function="internal">
        <lane id=":1117858182_0_0" index="0" disallow="tram rail_urban rail rail_electric rail_fast ship container cable_car subway aircraft wheelchair scooter drone" speed="6.63" length="9.31" shape="499.89,148.18 498.72,145.82 497.14,144.38 495.13,143.86 492.70,144.25"/>
    </edge>
    <edge id=":1117858182_1" function="internal">
        <lane id=":1117858182_1_0" index="0" disallow="tram rail_urban rail rail_electric rail_fast ship container cable_car subway aircraft wheelchair scooter drone" speed="8.00" length="14.23" shape="499.89,148.18 499.27,144.54 500.09,141.52 502.34,139.11 506.03,137.32"/>
    </edge>
    <edge id=":1117858182_2" function="internal">
        <lane id=":1117858182_2_0" index="0" disallow="tram rail_urban rail rail_electric rail_fast ship container cable_car subway aircraft wheelchair scooter drone" speed="3.65" length="4.67" shape="499.89,148.18 500.28,146.79 500.91,146.16 501.80,146.29 502.93,147.17"/>
    </edge>
    <edge id=":1117858182_3" function="internal">
        <lane id=":1117858182_3_0" index="0" disallow="tram rail_urban rail rail_electric rail_fast ship container cable_car subway aircraft wheelchair scooter drone" speed="6.29" length="9.05" shape="506.74,140.44 504.37,141.34 502.95,142.76 502.47,144.71 502.93,147.17"/>
    </edge>
    <edge id=":1117858182_4" function="internal">
        <lane id=":1117858182_4_0" index="0" disallow="tram rail_urban rail rail_electric rail_fast ship container cable_car subway aircraft wheelchair scooter drone" speed="8.33" length="14.55" shape="506.74,140.44 503.15,141.28 499.67,142.18 496.21,143.16 492.70,144.25"/>
    </edge>
    <edge id=":1117858182_5" function="internal">
        <lane id=":1117858182_5_0" index="0" disallow="tram rail_urban rail rail_electric rail_fast ship container cable_car subway aircraft wheelchair scooter drone" speed="3.70" length="4.68" shape="506.74,140.44 505.39,139.92 504.82,139.23 505.04,138.36 506.03,137.32"/>
    </edge>
    <edge id=":1117858182_6" function="internal">
        <lane id=":1117858182_6_0" index="0" disallow="tram rail_urban rail rail_electric rail_fast ship container cable_car subway aircraft wheelchair scooter drone" speed="8.33" length="14.84" shape="491.72,141.21 506.03,137.32"/>
    </edge>
    <edge id=":1117858182_7" function="internal">
        <lane id=":1117858182_7_0" index="0" disallow="tram rail_urban rail rail_electric rail_fast ship container cable_car subway aircraft wheelchair scooter drone" speed="8.11" length="14.43" shape="491.72,141.21 495.52,140.58 498.66,141.36 501.13,143.56 502.93,147.17"/>
    </edge>
    <edge id=":1117858182_8" function="internal">
        <lane id=":1117858182_8_0" index="0" disallow="tram rail_urban rail rail_electric rail_fast ship container cable_car subway aircraft wheelchair scooter drone" speed="3.65" length="4.67" shape="491.72,141.21 493.11,141.60 493.73,142.24 493.60,143.12 492.70,144.25"/>
    </edge>
    <edge id=":1117858183_0" function="internal">
        <lane id=":1117858183_0_0" index="0" disallow="tram rail_urban rail rail_electric rail_fast ship container cable_car subway aircraft wheelchair scooter drone" speed="6.50" length="8.99" shape="570.31,125.03 569.19,122.78 567.64,121.43 565.68,120.97 563.30,121.40"/>
    </edge>
    <edge id=":1117858183_1" function="internal">
        <lane id=":1117858183_1_0" index="0" disallow="tram rail_urban rail rail_electric rail_fast ship container cable_car subway aircraft wheelchair scooter drone" speed="8.01" length="14.27" shape="570.31,125.03 569.58,121.17 570.25,118.02 572.34,115.56 575.82,113.80"/>
    </edge>
    <edge id=":1117858183_2" function="internal">
        <lane id=":1117858183_2_0" index="0" disallow="tram rail_urban rail rail_electric rail_fast ship container cable_car subway aircraft wheelchair scooter drone" speed="3.65" length="4.68" shape="570.31,125.03 570.72,123.64 571.37,123.02 572.25,123.17 573.37,124.08"/>
    </edge>
    <edge id=":1117858183_3" function="internal">
        <lane id=":1117858183_3_0" index="0" disallow="tram rail_urban rail rail_electric rail_fast ship container cable_car subway aircraft wheelchair scooter drone" speed="6.56" length="9.21" shape="576.89,116.82 574.65,117.95 573.32,119.54 572.89,121.58 573.37,124.08"/>
    </edge>
    <edge id=":1117858183_4" function="internal">
        <lane id=":1117858183_4_0" index="0" disallow="tram rail_urban rail rail_electric rail_fast ship container cable_car subway aircraft wheelchair scooter drone" speed="8.33" length="14.34" shape="576.89,116.82 563.30,121.40"/>
    </edge>
    <edge id=":1117858183_5" function="internal">
        <lane id=":1117858183_5_0" index="0" disallow="tram rail_urban rail rail_electric rail_fast ship container cable_car subway aircraft wheelchair scooter drone" speed="3.65" length="4.67" shape="576.89,116.82 575.50,116.46 574.85,115.84 574.96,114.96 575.82,113.80"/>
    </edge>
    <edge id=":1117858183_6" function="internal">
        <lane id=":1117858183_6_0" index="0" disallow="tram rail_urban rail rail_electric rail_fast ship container cable_car subway aircraft wheelchair scooter drone" speed="8.33" length="14.22" shape="562.35,118.34 575.82,113.80"/>
    </edge>
    <edge id=":1117858183_7" function="internal">
        <lane id=":1117858183_7_0" index="0" disallow="tram rail_urban rail rail_electric rail_fast ship container cable_car subway aircraft wheelchair scooter drone" speed="8.00" length="14.15" shape="562.35,118.34 566.08,117.67 569.17,118.41 571.59,120.54 573.37,124.08"/>
    </edge>
    <edge id=":1117858183_8" function="internal">
        <lane id=":1117858183_8_0" index="0" disallow="tram rail_urban rail rail_electric rail_fast ship container cable_car subway aircraft wheelchair scooter drone" speed="3.65" length="4.67" shape="562.35,118.34 563.73,118.75 564.35,119.39 564.21,120.27 563.30,121.40"/>
    </edge>
    <edge id=":11233594569_0" function="internal">
        <lane id=":11233594569_0_0" index="0" disallow="tram rail_urban rail rail_electric rail_fast ship container cable_car subway aircraft wheelchair scooter drone" speed="27.78" length="0.28" shape="382.70,96.70 382.89,96.64"/>
        <lane id=":11233594569_0_1" index="1" disallow="tram rail_urban rail rail_electric rail_fast ship container cable_car subway aircraft wheelchair scooter drone" speed="27.78" length="0.28" shape="383.70,99.74 383.94,99.66"/>
        <lane id=":11233594569_0_2" index="2" disallow="tram rail_urban rail rail_electric rail_fast ship container cable_car subway aircraft wheelchair scooter drone" speed="27.78" length="0.28" shape="384.69,102.78 384.99,102.68"/>
        <lane id=":11233594569_0_3" index="3" disallow="tram rail_urban rail rail_electric rail_fast ship container cable_car subway aircraft wheelchair scooter drone" speed="27.78" length="0.28" shape="385.69,105.82 386.04,105.71"/>
    </edge>
    <edge id=":11233594570_0" function="internal">
        <lane id=":11233594570_0_0" index="0" disallow="tram rail_urban rail rail_electric rail_fast ship container cable_car subway aircraft wheelchair scooter drone" speed="13.89" length="0.10" shape="407.29,49.87 407.29,49.87"/>
        <lane id=":11233594570_0_1" index="1" disallow="tram rail_urban rail rail_electric rail_fast ship container cable_car subway aircraft wheelchair scooter drone" speed="13.89" length="0.10" shape="404.26,50.88 404.26,50.88"/>
        <lane id=":11233594570_0_2" index="2" disallow="tram rail_urban rail rail_electric rail_fast ship container cable_car subway aircraft wheelchair scooter drone" speed="13.89" length="0.10" shape="401.22,51.90 401.22,51.90"/>
        <lane id=":11233594570_0_3" index="3" disallow="tram rail_urban rail rail_electric rail_fast ship container cable_car subway aircraft wheelchair scooter drone" speed="13.89" length="0.10" shape="398.19,52.91 398.19,52.91"/>
    </edge>
    <edge id=":11233612272_0" function="internal">
        <lane id=":11233612272_0_0" index="0" disallow="tram rail_urban rail rail_electric rail_fast ship container cable_car subway aircraft wheelchair scooter drone" speed="13.89" length="0.10" shape="535.01,271.89 535.01,271.89"/>
        <lane id=":11233612272_0_1" index="1" disallow="tram rail_urban rail rail_electric rail_fast ship container cable_car subway aircraft wheelchair scooter drone" speed="13.89" length="0.10" shape="534.01,268.85 534.01,268.85"/>
    </edge>
    <edge id=":11233612272_2" function="internal">
        <lane id=":11233612272_2_0" index="0" disallow="tram rail_urban rail rail_electric rail_fast ship container cable_car subway aircraft wheelchair scooter drone" speed="13.89" length="0.10" shape="532.01,262.77 532.01,262.77"/>
        <lane id=":11233612272_2_1" index="1" disallow="tram rail_urban rail rail_electric rail_fast ship container cable_car subway aircraft wheelchair scooter drone" speed="13.89" length="0.10" shape="533.01,265.81 533.01,265.81"/>
    </edge>
    <edge id=":11867776819_0" function="internal">
        <lane id=":11867776819_0_0" index="0" disallow="tram rail_urban rail rail_electric rail_fast ship container cable_car subway aircraft wheelchair scooter drone" speed="3.65" length="4.67" shape="725.71,360.36 725.33,361.75 724.69,362.38 723.81,362.25 722.67,361.36"/>
    </edge>
    <edge id=":11938623836_0" function="internal">
        <lane id=":11938623836_0_0" index="0" disallow="tram rail_urban rail rail_electric rail_fast ship container cable_car subway aircraft wheelchair scooter drone" speed="8.33" length="0.30" shape="603.32,221.67 603.23,221.39"/>
    </edge>
    <edge id=":11938623836_1" function="internal">
        <lane id=":11938623836_1_0" index="0" disallow="tram rail_urban rail rail_electric rail_fast ship container cable_car subway aircraft wheelchair scooter drone" speed="8.33" length="0.30" shape="606.26,220.35 606.35,220.64"/>
    </edge>
    <edge id=":11938623839_0" function="internal">
        <lane id=":11938623839_0_0" index="0" disallow="tram rail_urban rail rail_electric rail_fast ship container cable_car subway aircraft wheelchair scooter drone" speed="8.33" length="0.30" shape="592.46,189.90 592.37,189.61"/>
    </edge>
    <edge id=":11938623839_1" function="internal">
        <lane id=":11938623839_1_0" index="0" disallow="tram rail_urban rail rail_electric rail_fast ship container cable_car subway aircraft wheelchair scooter drone" speed="8.33" length="0.30" shape="595.40,188.58 595.49,188.86"/>
    </edge>
    <edge id=":12803567876_0" function="internal">
        <lane id=":12803567876_0_0" index="0" disallow="tram rail_urban rail rail_electric rail_fast ship container cable_car subway aircraft wheelchair scooter drone" speed="8.33" length="0.30" shape="487.34,401.51 487.05,401.61"/>
        <lane id=":12803567876_0_1" index="1" disallow="tram rail_urban rail rail_electric rail_fast ship container cable_car subway aircraft wheelchair scooter drone" speed="8.33" length="0.30" shape="486.28,398.49 486.00,398.59"/>
    </edge>
    <edge id=":12803567876_2" function="internal">
        <lane id=":12803567876_2_0" index="0" disallow="tram rail_urban rail rail_electric rail_fast ship container cable_car subway aircraft wheelchair scooter drone" speed="8.33" length="0.30" shape="483.88,392.55 484.16,392.45"/>
        <lane id=":12803567876_2_1" index="1" disallow="tram rail_urban rail rail_electric rail_fast ship container cable_car subway aircraft wheelchair scooter drone" speed="8.33" length="0.30" shape="484.94,395.57 485.22,395.47"/>
    </edge>
    <edge id=":12803567878_0" function="internal">
        <lane id=":12803567878_0_0" index="0" disallow="tram rail_urban rail rail_electric rail_fast ship container cable_car subway aircraft wheelchair scooter drone" speed="8.33" length="0.30" shape="454.84,412.89 454.56,412.99"/>
        <lane id=":12803567878_0_1" index="1" disallow="tram rail_urban rail rail_electric rail_fast ship container cable_car subway aircraft wheelchair scooter drone" speed="8.33" length="0.30" shape="453.78,409.87 453.50,409.97"/>
    </edge>
    <edge id=":12803567878_2" function="internal">
        <lane id=":12803567878_2_0" index="0" disallow="tram rail_urban rail rail_electric rail_fast ship container cable_car subway aircraft wheelchair scooter drone" speed="8.33" length="0.30" shape="451.38,403.93 451.67,403.83"/>
        <lane id=":12803567878_2_1" index="1" disallow="tram rail_urban rail rail_electric rail_fast ship container cable_car subway aircraft wheelchair scooter drone" speed="8.33" length="0.30" shape="452.44,406.95 452.72,406.85"/>
    </edge>
    <edge id=":12991045317_0" function="internal">
        <lane id=":12991045317_0_0" index="0" disallow="tram rail_urban rail rail_electric rail_fast ship container cable_car subway aircraft wheelchair scooter drone" speed="8.33" length="0.30" shape="128.04,82.03 127.95,81.74"/>
        <lane id=":12991045317_0_1" index="1" disallow="tram rail_urban rail rail_electric rail_fast ship container cable_car subway aircraft wheelchair scooter drone" speed="8.33" length="0.30" shape="131.09,81.04 130.99,80.75"/>
    </edge>
    <edge id=":1926870793_0" function="internal">
        <lane id=":1926870793_0_0" index="0" disallow="tram rail_urban rail rail_electric rail_fast ship container cable_car subway aircraft wheelchair scooter drone" speed="8.33" length="0.86" shape="571.04,326.33 570.88,326.53 570.79,326.68 570.73,326.85 570.69,327.10"/>
    </edge>
    <edge id=":1926870793_1" function="internal">
        <lane id=":1926870793_1_0" index="0" disallow="tram rail_urban rail rail_electric rail_fast ship container cable_car subway aircraft wheelchair scooter drone" speed="7.52" length="2.59" shape="567.53,326.57 567.67,325.82 567.83,325.32 568.11,324.86 568.59,324.27"/>
    </edge>
    <edge id=":305119821_0" function="internal">
        <lane id=":305119821_0_0" index="0" disallow="pedestrian tram rail_urban rail rail_electric rail_fast ship container cable_car subway aircraft wheelchair scooter drone" speed="20.84" length="23.95" shape="165.97,199.33 159.46,197.73 154.92,196.11 150.46,195.47 144.20,196.80"/>
        <lane id=":305119821_0_1" index="1" disallow="pedestrian tram rail_urban rail rail_electric rail_fast ship container cable_car subway aircraft wheelchair scooter drone" speed="20.84" length="23.95" shape="166.46,196.17 159.50,194.50 154.64,192.88 149.86,192.30 143.17,193.77"/>
        <lane id=":305119821_0_2" index="2" disallow="pedestrian tram rail_urban rail rail_electric rail_fast ship container cable_car subway aircraft wheelchair scooter drone" speed="20.84" length="23.95" shape="166.96,193.01 159.55,191.28 154.36,189.65 149.27,189.14 142.14,190.74"/>
    </edge>
    <edge id=":305119821_3" function="internal">
        <lane id=":305119821_3_0" index="0" disallow="tram rail_urban rail rail_electric rail_fast ship container cable_car subway aircraft wheelchair scooter drone" speed="27.78" length="23.69" shape="166.64,189.20 144.20,196.80"/>
        <lane id=":305119821_3_1" index="1" disallow="tram rail_urban rail rail_electric rail_fast ship container cable_car subway aircraft wheelchair scooter drone" speed="27.78" length="23.69" shape="165.61,186.17 143.17,193.77"/>
        <lane id=":305119821_3_2" index="2" disallow="tram rail_urban rail rail_electric rail_fast ship container cable_car subway aircraft wheelchair scooter drone" speed="27.78" length="23.69" shape="164.58,183.14 142.14,190.74"/>
    </edge>
    <edge id=":305119830_0" function="internal">
        <lane id=":305119830_0_0" index="0" disallow="pedestrian tram rail_urban rail rail_electric rail_fast ship container cable_car subway aircraft wheelchair scooter drone" speed="22.22" length="0.35" shape="303.01,196.74 302.56,196.85"/>
        <lane id=":305119830_0_1" index="1" disallow="pedestrian tram rail_urban rail rail_electric rail_fast ship container cable_car subway aircraft wheelchair scooter drone" speed="22.22" length="0.35" shape="302.24,193.64 301.90,193.72"/>
        <lane id=":305119830_0_2" index="2" disallow="pedestrian tram rail_urban rail rail_electric rail_fast ship container cable_car subway aircraft wheelchair scooter drone" speed="22.22" length="0.35" shape="301.47,190.53 301.24,190.59"/>
    </edge>
    <edge id=":3233781285_0" function="internal">
        <lane id=":3233781285_0_0" index="0" disallow="tram rail_urban rail rail_electric rail_fast ship container cable_car subway aircraft wheelchair scooter drone" speed="8.33" length="0.30" shape="94.16,178.09 94.06,177.80"/>
        <lane id=":3233781285_0_1" index="1" disallow="tram rail_urban rail rail_electric rail_fast ship container cable_car subway aircraft wheelchair scooter drone" speed="8.33" length="0.30" shape="97.20,177.10 97.10,176.81"/>
    </edge>
    <edge id=":3237613206_0" function="internal">
        <lane id=":3237613206_0_0" index="0" disallow="tram rail_urban rail rail_electric rail_fast ship container cable_car subway aircraft wheelchair scooter drone" speed="13.89" length="0.29" shape="82.62,349.85 82.73,350.18"/>
        <lane id=":3237613206_0_1" index="1" disallow="tram rail_urban rail rail_electric rail_fast ship container cable_car subway aircraft wheelchair scooter drone" speed="13.89" length="0.29" shape="79.58,350.86 79.68,351.15"/>
        <lane id=":3237613206_0_2" index="2" disallow="tram rail_urban rail rail_electric rail_fast ship container cable_car subway aircraft wheelchair scooter drone" speed="13.89" length="0.29" shape="76.55,351.87 76.63,352.13"/>
        <lane id=":3237613206_0_3" index="3" disallow="tram rail_urban rail rail_electric rail_fast ship container cable_car subway aircraft wheelchair scooter drone" speed="13.89" length="0.29" shape="73.51,352.87 73.58,353.10"/>
    </edge>
    <edge id=":3254806309_0" function="internal">
        <lane id=":3254806309_0_0" index="0" disallow="pedestrian tram rail_urban rail rail_electric rail_fast ship container cable_car subway aircraft wheelchair scooter drone" speed="13.89" length="0.42" shape="27.37,20.48 27.10,20.56"/>
        <lane id=":3254806309_0_1" index="1" disallow="pedestrian tram rail_urban rail rail_electric rail_fast ship container cable_car subway aircraft wheelchair scooter drone" speed="13.89" length="0.42" shape="26.56,17.38 26.20,17.48"/>
        <lane id=":3254806309_0_2" index="2" disallow="pedestrian tram rail_urban rail rail_electric rail_fast ship container cable_car subway aircraft wheelchair scooter drone" speed="13.89" length="0.42" shape="25.75,14.29 25.30,14.41"/>
        <lane id=":3254806309_0_3" index="3" disallow="pedestrian tram rail_urban rail rail_electric rail_fast ship container cable_car subway aircraft wheelchair scooter drone" speed="13.89" length="0.42" shape="24.94,11.19 24.39,11.34"/>
    </edge>
    <edge id=":369918464_0" function="internal">