<?xml version="1.0" encoding="UTF-8"?>

<!-- generated on 2026-01-13 01:50:45.069365 by Eclipse SUMO randomTrips.py v1_25_0+0000-ac6c5a6752d
<configuration>
    <net-file value="final_map.net.xml"/>
    <output-trip-file value="trips_low.xml"/>
    <trip-attributes value="departLane='best' type='thesis_car'"/>
    <fringe-factor value="20"/>
    <end value="1000.0"/>
    <period value="3.0"/>
</configuration>
-->

<!-- generated on 2026-01-13T01:50:44.977702+08:00 by Eclipse SUMO duarouter 1.25.0
<duarouterConfiguration xmlns:xsi="http://www.w3.org/2001/XMLSchema-instance" xsi:noNamespaceSchemaLocation="http://sumo.dlr.de/xsd/duarouterConfiguration.xsd">

    <input>
        <net-file value="final_map.net.xml"/>
        <route-files value="trips_low.xml"/>
    </input>

    <output>
        <output-file value="routes.rou.xml"/>
        <alternatives-output value="NUL"/>
    </output>

    <time>
        <begin value="0"/>
        <end value="1000.0"/>
    </time>

    <report>
        <no-warnings value="true"/>
        <ignore-errors value="true"/>
        <no-step-log value="true"/>
    </report>

</duarouterConfiguration>
-->

<routes xmlns:xsi="http://www.w3.org/2001/XMLSchema-instance" xsi:noNamespaceSchemaLocation="http://sumo.dlr.de/xsd/routes_file.xsd">
    <vehicle id="0" type="thesis_car" depart="0.00" departLane="best">
        <route edges="744645397#1 750563083#0 32906172#1 750570769#0 750570769#1 745542368#0 572782867#1 572782867#2 744999973#1 744999974#0 744999974#1 -1279681436#0"/>
    </vehicle>
    <vehicle id="1" type="thesis_car" depart="3.00" departLane="best">
        <route edges="1279681436#0 -746423901#2 -746423901#1 -174398023#3 -174398023#2 -174398023#1 -744949906#1 -744949906#0 -744944962#1 -744944967#1 744944972#1 323726178#1 1280054791 174398008#1"/>
    </vehicle>
    <vehicle id="2" type="thesis_car" depart="6.00" departLane="best">
        <route edges="746423901#2 -746423901#2 -746423901#1 -174398023#3 -174398023#2 -174398023#1 -744949906#1 -744949906#0 744949907 744944964 569215926 27788646#0 27788646#1 27788646#2 27788646#3 51355539#0 749858672#1 744649710 1212501346 744645401#1 747939435 747939432 744645402#1"/>
    </vehicle>
    <vehicle id="3" type="thesis_car" depart="9.00" departLane="best">
        <route edges="749508470 -747853026#0 -747853027#0 745062638#1 747853030 744949908 1212504575 744944960#0 744944967#1 744944962#0 747228971#1 -174398024#3 -174398024#2 -174398024#1"/>
    </vehicle>
    <vehicle id="4" type="thesis_car" depart="12.00" departLane="best">
        <route edges="1212504575 744944960#0 744944967#1 744944962#0 744949907 744944964 569215926 27788646#0 27788646#1 27788646#2 27788646#3 51355539#0 32906172#1 750570769#0 750570769#1 745542368#0 572782867#1"/>
    </vehicle>
    <vehicle id="5" type="thesis_car" depart="15.00" departLane="best">
        <route edges="-174398024#1 -96489258#1 -746423905#1 -744949906#1 -744949906#0 744949907 -744954674 -96487803#1"/>
    </vehicle>
    <vehicle id="6" type="thesis_car" depart="18.00" departLane="best">
        <route edges="1279681436#0 -746423901#2 -746423901#1 -174398023#3 -174398023#2 -174398023#1 -744949906#1 -744949906#0 744949907 744944964 569215926 27788646#0 27788646#1 27788646#2 27788646#3 51355539#0 745356310#1 745377174 744634701#1"/>
    </vehicle>
    <vehicle id="7" type="thesis_car" depart="21.00" departLane="best">
        <route edges="747228982#0 747228981#1 747228980 744944961 744949906#1 174398023#1 174398023#2 174398023#3 746423901#1 746423901#2 -1279681436#0"/>
    </vehicle>
    <vehicle id="8" type="thesis_car" depart="24.00" departLane="best">
        <route edges="747228982#0 747228981#1 747228980 744949907 744944964 569215926 27788646#0 27788646#1 27788646#2 27788646#3 51355539#0 749858672#1 744649710 1212501346 744645401#1 747939435 747939432 744645402#1"/>
    </vehicle>
    <vehicle id="9" type="thesis_car" depart="27.00" departLane="best">
        <route edges="23370756 745062638#1 747853030 744949908 1212504575 744944960#0 744944972#1 -746649485#0"/>
    </vehicle>
    <vehicle id="10" type="thesis_car" depart="30.00" departLane="best">
        <route edges="750570767 572782867#1 572782867#2 744999973#1 744999974#0 744999974#1 32487759#0 32487759#1 32487759#2"/>
    </vehicle>
    <vehicle id="11" type="thesis_car" depart="33.00" departLane="best">
        <route edges="-746423901#2 -746423901#1 -174398023#3 -174398023#2 -174398023#1 -744949906#1 -744949906#0 744949907 744944964 569215926 27788646#0 27788646#1 27788646#2 27788646#3 51355539#0 749858672#1 744649710 1212501346 744645404#1 -184852733#1 -184852733#0"/>
    </vehicle>
    <vehicle id="12" type="thesis_car" depart="36.00" departLane="best">
        <route edges="747951014#0 744926194#1 744645399#0 744645397#1 750563083#0 745356310#1 745377174 744634701#1"/>
    </vehicle>
    <vehicle id="13" type="thesis_car" depart="39.00" departLane="best">
        <route edges="747228982#0 747228981#1 747228980 744944961"/>
    </vehicle>
    <vehicle id="14" type="thesis_car" depart="42.00" departLane="best">
        <route edges="747939433#1 747217017#0 -747217017#0 -747939433#1 -184852743#1 -184852743#0 744926194#1 744645399#0 744645397#1 750563083#0 745356310#1 745377174 744634701#1"/>
    </vehicle>
    <vehicle id="15" type="thesis_car" depart="45.00" departLane="best">
        <route edges="744999974#1 -1279681436#0"/>
    </vehicle>
    <vehicle id="16" type="thesis_car" depart="48.00" departLane="best">
        <route edges="1279681436#0 -746423901#2 -746423901#1 -174398023#3 -174398023#2 -174398023#1 -744949906#1 -744949906#0 744949907 744944964 569215926 27788646#0 27788646#1 27788646#2 27788646#3 51355539#0 32906172#1 750570769#0 750570769#1 745542368#0 745542369#1 35826311#1 744632144#0 744632144#1 744632160#0 744632160#1 35826312#0 35826312#2 35826312#3 747175713#1 307308395#1"/>
    </vehicle>
    <vehicle id="17" type="thesis_car" depart="51.00" departLane="best">
        <route edges="-745055614#2 -745055614#1 -174398024#3 -174398024#2 -174398024#1 -96489258#1 174398011#1 174398011#3"/>
    </vehicle>
    <vehicle id="18" type="thesis_car" depart="54.00" departLane="best">
        <route edges="-746653786#0 -746649485#0 744944967#1 744944962#0 744949907 744944964 569215926 27788646#0 27788646#1"/>
    </vehicle>
    <vehicle id="19" type="thesis_car" depart="57.00" departLane="best">
        <route edges="744632165#1 1212501347#0 744645397#1 750563083#0 32906172#1 750570769#0 750570769#1 745542368#0 745542369#1 35826311#1 744632144#0 744632144#1 744632160#0 744632160#1 35826312#0 35826312#2 35826312#3 747175713#1 32488019#0 32488019#1 32488019#2"/>
    </vehicle>
    <vehicle id="20" type="thesis_car" depart="60.00" departLane="best">
        <route edges="23370756 745062638#1 747853030 744949908 1212504575 744944960#0 744944967#1 744944962#0 747228971#1 -174398024#3 -174398024#2 -174398024#1 -96489258#1"/>
    </vehicle>
    <vehicle id="21" type="thesis_car" depart="63.00" departLane="best">
        <route edges="1279681436#0 -746423901#2 -746423901#1 -174398023#3 -174398023#2 -174398023#1 -744949906#1 -744949906#0 -744944962#1 -744944967#1 -744944960#0 -1212504575 -744949908 -747853030 -745062638#1 745062638#1 747853030"/>
    </vehicle>
    <vehicle id="22" type="thesis_car" depart="66.00" departLane="best">
        <route edges="744645404#1 51355540#1 744944963#1 744944967#1 744944962#0 744949907 744944964 569215926 27788646#0 27788646#1 27788646#2 27788646#3 51355539#0 745356310#1 745377174 744634701#1"/>
    </vehicle>
    <vehicle id="23" type="thesis_car" depart="69.00" departLane="best">
        <route edges="-747853027#0 745062638#1 747853030 744949908 1212504575 744944960#0 744944967#1 744944962#0 744944961"/>
    </vehicle>
    <vehicle id="24" type="thesis_car" depart="72.00" departLane="best">
        <route edges="-747447020#1 -747447020#0 -747853026#0 -747853027#0 -747217017#0 -747939433#1 -184852743#1 -184852743#0 744926194#1 744645399#0 744645397#1 750563083#0 32906172#1 750570769#0 750570769#1 745542368#0 745542369#1 35826311#1 744632144#0 744632144#1 744632160#0 744632160#1 35826312#0 35826312#2 35826312#3 747175713#1 32488019#0 32488019#1 32488019#2"/>
    </vehicle>
    <vehicle id="25" type="thesis_car" depart="75.00" departLane="best">
        <route edges="96487803#1 744944963#1 744944967#1 744944962#0 744949907 744944964 569215926 27788646#0 27788646#1 27788646#2 27788646#3 51355539#0 749858672#1 744649710 1212501346 744645397#1"/>
    </vehicle>
    <vehicle id="26" type="thesis_car" depart="78.00" departLane="best">
        <route edges="51355540#1 744944963#1 -744944960#0 -1212504575 -744949908 -747853030 -745062638#1 -747217017#0 -747939433#1 -184852743#1 -184852743#0 744645402#1"/>
    </vehicle>
    <vehicle id="27" type="thesis_car" depart="81.00" departLane="best">
        <route edges="747951014#0 184852743#0 184852743#1 747939433#1 747217017#0 745062638#1"/>
    </vehicle>
    <vehicle id="28" type="thesis_car" depart="84.00" departLane="best">
        <route edges="1279681436#0 -1279681436#0"/>
    </vehicle>
    <vehicle id="29" type="thesis_car" depart="87.00" departLane="best">
        <route edges="182331870#0 -747853027#0 -747217017#0 -747939433#1 -184852743#1 -184852743#0 184852743#0"/>
    </vehicle>
    <vehicle id="30" type="thesis_car" depart="90.00" departLane="best">
        <route edges="1212501346 744645401#1 747939435 747939432"/>
    </vehicle>
    <vehicle id="31" type="thesis_car" depart="93.00" departLane="best">
        <route edges="747951014#0 744926194#1 744645399#0 744645397#1 750563083#0 32906172#1 750570769#0 750570769#1 745542368#0 572782867#1 572782867#2 744999973#1 744999974#0 744999974#1 32487759#0 32487759#1 32487759#2"/>
    </vehicle>
    <vehicle id="32" type="thesis_car" depart="96.00" departLane="best">
        <route edges="744926195#0 744926195#1 744926195#2 750570769#0 750570769#1 745542368#0 745542369#1 35826311#1 744632144#0 744632144#1 744632160#0 744632160#1 35826312#0 35826312#2 35826312#3 747175713#1 32488019#0 32488019#1 32488019#2"/>
    </vehicle>
    <vehicle id="33" type="thesis_car" depart="99.00" departLane="best">
        <route edges="750570767 745542369#1 750563077 749858672#1 744649710 1212501346 744645401#1 32836569#1"/>
    </vehicle>
    <vehicle id="34" type="thesis_car" depart="102.00" departLane="best">
        <route edges="1279681436#0 -746423901#2 -746423901#1 -174398023#3 -174398023#2 -174398023#1 746423905#1 96489258#1 174398024#1"/>
    </vehicle>
    <vehicle id="35" type="thesis_car" depart="105.00" departLane="best">
        <route edges="569215926 27788646#0 27788646#1 27788646#2 27788646#3 51355539#0 749858672#1 744649710 1212501346 744645404#1 -184852733#1 184852733#1"/>
    </vehicle>
    <vehicle id="36" type="thesis_car" depart="108.00" departLane="best">
        <route edges="744632165#1 1212501347#0 744645401#1 747939435 747939432 184852743#0 184852743#1 747939433#1 747217017#0 184852741#1 747853028#1 747447020#0 747447020#1"/>
    </vehicle>
    <vehicle id="37" type="thesis_car" depart="111.00" departLane="best">
        <route edges="27788646#2 27788646#3 51355539#0 749858672#1 744649710 1212501346 744645404#1 51355540#1 744944963#1 744944972#1 323726178#1 1280054791"/>
    </vehicle>
    <vehicle id="38" type="thesis_car" depart="114.00" departLane="best">
        <route edges="96489258#1 174398024#1 174398024#2 174398024#3 747228981#1 747228980 744949907 744944964 569215926 27788646#0 27788646#1 27788646#2 27788646#3 51355539#0 32906172#1 750570769#0 750570769#1 745542368#0 745542369#1 35826311#1 744632144#0"/>
    </vehicle>
    <vehicle id="39" type="thesis_car" depart="117.00" departLane="best">
        <route edges="-746423901#2 -746423901#1 746423901#1 746423901#2 -1279681436#0"/>
    </vehicle>
    <vehicle id="40" type="thesis_car" depart="120.00" departLane="best">
        <route edges="-747447020#1 -747447020#0 -747853026#0 -747853027#0 -747217017#0 -747939433#1 -184852743#1 -184852743#0 744926194#1 744645399#0 744645397#1 750563083#0 745356310#1 745377174 744634701#1"/>
    </vehicle>
    <vehicle id="41" type="thesis_car" depart="123.00" departLane="best">
        <route edges="747228982#0 747228981#1 747228980 744949907 744944964 569215926 27788646#0 27788646#1 27788646#2 27788646#3 51355539#0 749858672#1 744649710 1212501346 744645401#1 32836569#1"/>
    </vehicle>
    <vehicle id="42" type="thesis_car" depart="126.00" departLane="best">
        <route edges="-744949906#0 744949907 744944964 569215926 27788646#0 27788646#1 27788646#2 27788646#3 51355539#0 32906172#1 750570769#0 750570769#1 745542368#0 745542369#1 35826311#1 744632144#0 744632144#1 744632160#0 744632160#1 35826312#0 35826312#2 35826312#3 747175713#1 32488019#0 32488019#1 32488019#2"/>
    </vehicle>
    <vehicle id="43" type="thesis_car" depart="129.00" departLane="best">
        <route edges="-174398011#1 -746423905#1 -744949906#1 -744949906#0 744949907 744944964 569215926 27788646#0 27788646#1 27788646#2 27788646#3 744926195#0 744926195#1 744926195#2"/>
    </vehicle>
    <vehicle id="44" type="thesis_car" depart="132.00" departLane="best">
        <route edges="1279681436#0 -746423901#2 -746423901#1 -174398023#3 -174398023#2 -174398023#1 -744949906#1 -744949906#0 744949907 744944964 569215926 27788646#0 27788646#1 27788646#2 27788646#3 51355539#0 749858672#1 744649710 1212501346 744645401#1 747939435 747939432 744926194#1 744645399#0"/>
    </vehicle>
    <vehicle id="45" type="thesis_car" depart="135.00" departLane="best">
        <route edges="-747447020#1 -747447020#0 -747853026#0 -747853027#0 -747217017#0 -747939433#1 -184852743#1 -184852743#0 744926194#1 744645399#0 744645397#1 750563083#0 749858672#1 744649710 1212501346 744645401#1 32836569#1"/>
    </vehicle>
    <vehicle id="46" type="thesis_car" depart="138.00" departLane="best">
        <route edges="747951014#0 184852743#0 184852743#1 747939433#1 747217017#0 184852741#1"/>
    </vehicle>
    <vehicle id="47" type="thesis_car" depart="141.00" departLane="best">
        <route edges="750570767 745542369#1 750563077 749858672#1 744649710 1212501346 744645404#1 51355540#1 744944963#1 744944967#1 744944962#0 747228971#1 747228981#1"/>
    </vehicle>
    <vehicle id="48" type="thesis_car" depart="144.00" departLane="best">
        <route edges="174398023#2 174398023#3 -174398023#3 -174398023#2 -174398023#1 -744949906#1 -744949906#0 744949907 744944964 569215926 27788646#0 27788646#1 27788646#2 27788646#3 51355539#0 749858672#1 744649710 1212501346 744645397#1"/>
    </vehicle>
    <vehicle id="49" type="thesis_car" depart="147.00" departLane="best">
        <route edges="744632165#1 1212501347#0 744645404#1 51355540#1 744944963#1 744944967#1 744944962#0 744944961 744949906#1 746423905#1 -746423905#1"/>
    </vehicle>
    <vehicle id="50" type="thesis_car" depart="150.00" departLane="best">
        <route edges="-1212504575 -744949908 744949908 1212504575 744944960#0 744944967#1 744944962#0 744944961 744949906#1 174398023#1 174398023#2 174398023#3 746423901#1 746423901#2 32487759#0 32487759#1 32487759#2"/>
    </vehicle>
    <vehicle id="51" type="thesis_car" depart="153.00" departLane="best">
        <route edges="-174398023#1 -744949906#1 -744949906#0 -744944962#1 -744944967#1 -744944960#0 -1212504575 -744949908 -747853030 -745062638#1 184852741#1 747853028#1 747447020#0 747447020#1"/>
    </vehicle>
    <vehicle id="52" type="thesis_car" depart="156.00" departLane="best">
        <route edges="747951014#0 744926194#1 744645399#0 744645397#1 750563083#0 745356310#1 745377174 745365881"/>
    </vehicle>
    <vehicle id="53" type="thesis_car" depart="159.00" departLane="best">
        <route edges="174398024#2 174398024#3 747228981#1 747228980 744944961 744949906#1 174398023#1 174398023#2 174398023#3 746423901#1 746423901#2 -1279681436#0"/>
    </vehicle>
    <vehicle id="54" type="thesis_car" depart="162.00" departLane="best">
        <route edges="747951014#0 184852743#0 184852743#1 747939433#1"/>
    </vehicle>
    <vehicle id="55" type="thesis_car" depart="165.00" departLane="best">
        <route edges="-745062638#1 -747217017#0 -747939433#1 -184852743#1 -184852743#0 744926194#1 744645399#0 744645397#1 750563083#0 32906172#1 750570769#0 750570769#1 745542368#0 745542369#1 35826311#1 744632144#0 744632144#1 744632160#0 744632160#1 35826312#0"/>
    </vehicle>
    <vehicle id="56" type="thesis_car" depart="168.00" departLane="best">
        <route edges="-744949908 744949908 1212504575 744944960#0 744944967#1 744944962#0 744949907 744944964 569215926 27788646#0 27788646#1 27788646#2 27788646#3 51355539#0 32906172#1 750570769#0 750570769#1 745542368#0 572782867#1 572782867#2 744999973#1 744999974#0 744999974#1"/>
    </vehicle>
    <vehicle id="57" type="thesis_car" depart="171.00" departLane="best">
        <route edges="747228982#0 747228981#1 747228980 -744944962#1 -744944967#1 -744944960#0 -1212504575 -744949908"/>
    </vehicle>
    <vehicle id="58" type="thesis_car" depart="174.00" departLane="best">
        <route edges="1279681436#0 -746423901#2 -746423901#1 -174398023#3 -174398023#2 -174398023#1 -744949906#1 -744949906#0 -744944962#1 -744944967#1 -744944960#0 -1212504575 -744949908 -747853030 -745062638#1 184852741#1 747853028#1 747447020#0"/>
    </vehicle>
    <vehicle id="59" type="thesis_car" depart="177.00" departLane="best">
        <route edges="32906172#1 750570769#0 750570769#1 745542368#0 745542369#1 750563077 749858672#1 744649710 1212501346 744645404#1 51355540#1 744944963#1 744944967#1 744944962#0 744944961"/>
    </vehicle>
    <vehicle id="60" type="thesis_car" depart="180.00" departLane="best">
        <route edges="-96487803#1 96487803#1 744944963#1 744944967#1 744944962#0 744944961 744949906#1 174398023#1 174398023#2 174398023#3 746423901#1 746423901#2 32487759#0 32487759#1 32487759#2"/>
    </vehicle>
    <vehicle id="61" type="thesis_car" depart="183.00" departLane="best">
        <route edges="96487804#2 -96487803#0 -96487801#0 -747936760#1 -184852743#1 -184852743#0 744645402#1"/>
    </vehicle>
    <vehicle id="62" type="thesis_car" depart="186.00" departLane="best">
        <route edges="-747447020#1 -747447020#0 -749508471#0 174398008#1"/>
    </vehicle>
    <vehicle id="63" type="thesis_car" depart="189.00" departLane="best">
        <route edges="23370756 -747217017#0 -747939433#1 -184852743#1 -184852743#0 744926194#1 744645399#0 744645397#1 750563083#0 745356310#1 745377174 744634701#1"/>
    </vehicle>
    <vehicle id="64" type="thesis_car" depart="192.00" departLane="best">
        <route edges="1279681436#0 -746423901#2 -746423901#1 -174398023#3 -174398023#2 -174398023#1 -744949906#1 -744949906#0 -744944962#1 -744944967#1 744944972#1 323726178#1 1280054791"/>
    </vehicle>
    <vehicle id="65" type="thesis_car" depart="195.00" departLane="best">
        <route edges="-744954674 744944963#1 744944967#1 744944962#0 744949907 744944964 569215926 27788646#0 27788646#1 27788646#2 27788646#3 51355539#0 745356310#1 745377174 744634701#1"/>
    </vehicle>
    <vehicle id="66" type="thesis_car" depart="198.00" departLane="best">
        <route edges="1279681436#0 -746423901#2 -746423901#1 -174398023#3 -174398023#2 -174398023#1 -744949906#1 -744949906#0 -744944962#1 -744944967#1 -744944960#0 -1212504575 -744949908 -747853030 -745062638#1 184852741#1 747853028#1 747447020#0 747447020#1"/>
    </vehicle>
    <vehicle id="67" type="thesis_car" depart="201.00" departLane="best">
        <route edges="747951014#0 744926194#1 744645399#0 744645404#1 51355540#1 744944963#1 744944967#1 744944962#0 744944961 744949906#1 174398023#1 174398023#2 174398023#3 -744999975#1 -174398011#4 -174398011#3"/>
    </vehicle>
    <vehicle id="68" type="thesis_car" depart="204.00" departLane="best">
        <route edges="1279681436#0 -746423901#2 -746423901#1 -174398023#3 -174398023#2 -174398023#1 -744949906#1 -744949906#0 744949907 744944964 569215926 27788646#0 27788646#1 27788646#2 27788646#3 51355539#0 749858672#1 744649710 1212501346 744645401#1 747939435 747939432 744645402#1"/>
    </vehicle>
    <vehicle id="69" type="thesis_car" depart="207.00" departLane="best">
        <route edges="1212501347#0 744645404#1 51355540#1 744944963#1 744944967#1 744944962#0 744944961 744949906#1 174398023#1 174398023#2 174398023#3 -744999975#1"/>
    </vehicle>
    <vehicle id="70" type="thesis_car" depart="210.00" departLane="best">
        <route edges="747228982#0 747228981#1 747228980 -744944962#1 -744944967#1 -744944960#0 -1212504575 -744949908 -96487801#3 -96487801#2"/>
    </vehicle>
    <vehicle id="71" type="thesis_car" depart="213.00" departLane="best">
        <route edges="-746649485#0 744944967#1 744944962#0 744949907 744944964 569215926 27788646#0 27788646#1 27788646#2 27788646#3 51355539#0 749858672#1 744649710 1212501346 744645401#1 32836569#1"/>
    </vehicle>
    <vehicle id="72" type="thesis_car" depart="216.00" departLane="best">
        <route edges="745542369#1 750563077 749858672#1 744649710 1212501346 744645401#1 747939435 747939432 744645402#1"/>
    </vehicle>
    <vehicle id="73" type="thesis_car" depart="219.00" departLane="best">
        <route edges="96487801#3 -96487801#3 -96487801#2 -96487801#1 96487803#0 -96487804#2 -96487804#0 -184852733#0"/>
    </vehicle>
    <vehicle id="74" type="thesis_car" depart="222.00" departLane="best">
        <route edges="27788646#3 51355539#0 32906172#1 750570769#0 750570769#1 745542368#0 572782867#1 572782867#2 744999973#1 744999974#0 744999974#1 32487759#0 32487759#1 32487759#2"/>
    </vehicle>
    <vehicle id="75" type="thesis_car" depart="225.00" departLane="best">
        <route edges="747951014#0 744926194#1 744645399#0 744645404#1 51355540#1 744944963#1 744944967#1 744944962#0 744944961 744949906#1 746423905#1 96489258#1 174398024#1 174398024#2"/>
    </vehicle>
    <vehicle id="76" type="thesis_car" depart="228.00" departLane="best">
        <route edges="-96487801#2 -96487801#1 -96487801#0 -747936760#1 -184852743#1 -184852743#0 744926194#1 744645399#0 744645397#1 750563083#0 749858672#1 744649710 1212501346 744645401#1 32836569#1"/>
    </vehicle>
    <vehicle id="77" type="thesis_car" depart="231.00" departLane="best">
        <route edges="1279681436#0 -746423901#2 -746423901#1 -174398023#3 -174398023#2 -174398023#1 -744949906#1 -744949906#0 -744944962#1 -744944967#1 -744944960#0 -1212504575 -744949908 -747853030 -745062638#1 184852741#1 747853028#1 747447020#0 747447020#1"/>
    </vehicle>
    <vehicle id="78" type="thesis_car" depart="234.00" departLane="best">
        <route edges="96489258#1 174398024#1 174398024#2 174398024#3 747228981#1 747228980 744949907 744944964 569215926 27788646#0 27788646#1 27788646#2 27788646#3 51355539#0 745356310#1 745377174 745365881"/>
    </vehicle>
    <vehicle id="79" type="thesis_car" depart="237.00" departLane="best">
        <route edges="747951014#0 184852743#0 184852743#1 747939433#1 747217017#0 184852741#1 747853028#1 747447020#0 747447020#1 -747447020#1 -747447020#0"/>
    </vehicle>
    <vehicle id="80" type="thesis_car" depart="240.00" departLane="best">
        <route edges="27788646#3 51355539#0 32906172#1 750570769#0 750570769#1 745542368#0 572782867#1 572782867#2 744999973#1 744999974#0 744999974#1 -1279681436#0"/>
    </vehicle>
    <vehicle id="81" type="thesis_car" depart="243.00" departLane="best">
        <route edges="23370756 745062638#1 747853030 -96487801#3 -96487801#2 -96487801#1 96487801#1 96487801#2 96487801#3"/>
    </vehicle>
    <vehicle id="82" type="thesis_car" depart="246.00" departLane="best">
        <route edges="1279681436#0 -746423901#2 -746423901#1 -174398023#3 -174398023#2 -174398023#1 -744949906#1 -744949906#0 744949907 744944964 569215926 27788646#0 27788646#1 27788646#2 27788646#3 51355539#0 745356310#1 745377174 745365881"/>
    </vehicle>
    <vehicle id="83" type="thesis_car" depart="249.00" departLane="best">
        <route edges="750570767 745542369#1 750563077 749858672#1 744649710 1212501346 744645404#1 -184852733#1 96487804#0 96487804#2"/>
    </vehicle>
    <vehicle id="84" type="thesis_car" depart="252.00" departLane="best">
        <route edges="51355540#1 744944963#1 744944967#1 744944962#0 744949907 744944964 569215926 27788646#0 27788646#1 27788646#2 27788646#3 744926195#0 744926195#1"/>
    </vehicle>
    <vehicle id="85" type="thesis_car" depart="255.00" departLane="best">
        <route edges="-747447020#1 -747447020#0 -747853026#0 -747853027#0 745062638#1 747853030 744949908 1212504575 744944960#0 744944967#1 744944962#0 744944961 744949906#1 174398023#1 174398023#2 174398023#3 746423901#1 746423901#2 32487759#0 32487759#1"/>
    </vehicle>
    <vehicle id="86" type="thesis_car" depart="258.00" departLane="best">
        <route edges="81548613#0 81548613#1 745377174 744634701#1"/>
    </vehicle>
    <vehicle id="87" type="thesis_car" depart="261.00" departLane="best">
        <route edges="-744944962#1 -744944967#1 744944967#1 744944962#0 744949907 744944964 569215926 27788646#0 27788646#1 27788646#2 27788646#3 51355539#0 745356310#1 745377174 744634701#1"/>
    </vehicle>
    <vehicle id="88" type="thesis_car" depart="264.00" departLane="best">
        <route edges="-747447020#1 -747447020#0 -747853026#0 -747853027#0 -747217017#0 -747939433#1 -184852743#1 -184852743#0 744926194#1 744645399#0 744645397#1 750563083#0"/>
    </vehicle>
    <vehicle id="89" type="thesis_car" depart="267.00" departLane="best">
        <route edges="-745055614#2 -745055614#1 747228981#1 747228980 -744944962#1 -744944967#1 -744944960#0 -1212504575 -744949908 -96487801#3 -96487801#2 -96487801#1 -96487801#0"/>
    </vehicle>
    <vehicle id="90" type="thesis_car" depart="270.00" departLane="best">
        <route edges="744632165#1 1212501347#0 744645401#1 747939435 747939432 744645402#1"/>
    </vehicle>
    <vehicle id="91" type="thesis_car" depart="273.00" departLane="best">
        <route edges="1279681436#0 -746423901#2 -746423901#1 -174398023#3 -174398023#2 -174398023#1 -744949906#1 -744949906#0"/>
    </vehicle>
    <vehicle id="92" type="thesis_car" depart="276.00" departLane="best">
        <route edges="747951014#0 744926194#1 744645399#0 744645404#1 51355540#1 744944963#1 744944967#1 744944962#0 744944961 744949906#1 746423905#1 96489258#1 174398024#1"/>
    </vehicle>
    <vehicle id="93" type="thesis_car" depart="279.00" departLane="best">
        <route edges="744632165#1 1212501347#0 744645397#1 750563083#0 745356310#1 745377174 744634701#1"/>
    </vehicle>
    <vehicle id="94" type="thesis_car" depart="282.00" departLane="best">
        <route edges="319060501#1 272521440#0 745377174 744634701#1"/>
    </vehicle>
    <vehicle id="95" type="thesis_car" depart="285.00" departLane="best">
        <route edges="-96487804#0 184852733#1 51355540#1 744944963#1 744944967#1 744944962#0 744949907 744944964 569215926 27788646#0 27788646#1 27788646#2 27788646#3 744926195#0"/>
    </vehicle>
    <vehicle id="96" type="thesis_car" depart="288.00" departLane="best">
        <route edges="1279681436#0 -746423901#2 -746423901#1 -174398023#3 -174398023#2 -174398023#1 -744949906#1 -744949906#0 744949907 744944964 569215926 27788646#0 27788646#1 27788646#2 27788646#3 51355539#0 32906172#1 750570769#0 750570769#1 745542368#0 745542369#1 35826311#1 744632144#0 744632144#1 744632160#0 744632160#1 35826312#0 35826312#2 35826312#3 747175713#1 32488019#0 32488019#1 32488019#2"/>
    </vehicle>
    <vehicle id="97" type="thesis_car" depart="291.00" departLane="best">
        <route edges="744944961 744949906#1 174398023#1 174398023#2 174398023#3 746423901#1 746423901#2 32487759#0 32487759#1 32487759#2"/>
    </vehicle>
    <vehicle id="98" type="thesis_car" depart="294.00" departLane="best">
        <route edges="184852733#0 96487804#0 96487804#2 -96487803#0 96487801#1 96487801#2 96487801#3 744949908"/>
    </vehicle>
    <vehicle id="99" type="thesis_car" depart="297.00" departLane="best">
        <route edges="-744954674 744944963#1 744944967#1 744944962#0 744949907 744944964 569215926 27788646#0 27788646#1 27788646#2 27788646#3 51355539#0 749858672#1 744649710 1212501346 744645401#1 32836569#1"/>
    </vehicle>
    <vehicle id="100" type="thesis_car" depart="300.00" departLane="best">
        <route edges="96489258#1 174398024#1 174398024#2 174398024#3 747228981#1 747228980 744949907 744944964 569215926 27788646#0 27788646#1 27788646#2 27788646#3 51355539#0 749858672#1 744649710 1212501346 744645404#1 -184852733#1 96487804#0 96487804#2"/>
    </vehicle>
    <vehicle id="101" type="thesis_car" depart="303.00" departLane="best">
        <route edges="-744999975#1 -174398011#4 -174398011#3 -174398011#1 -746423905#1 -744949906#1 -744949906#0 744949907 744944964 569215926 27788646#0 27788646#1 27788646#2 27788646#3 51355539#0 749858672#1 744649710 1212501346"/>
    </vehicle>
    <vehicle id="102" type="thesis_car" depart="306.00" departLane="best">
        <route edges="1279681436#0 -746423901#2 -746423901#1 -174398023#3 -174398023#2 -174398023#1 -744949906#1 -744949906#0 -744944962#1 -744944967#1 -744944960#0 -1212504575 -744949908 -747853030 -745062638#1 184852741#1 747853028#1"/>
    </vehicle>
    <vehicle id="103" type="thesis_car" depart="309.00" departLane="best">
        <route edges="747951014#0 184852743#0 184852743#1 747939433#1 747217017#0 184852741#1 747853028#1 747447020#0 747447020#1"/>
    </vehicle>
    <vehicle id="104" type="thesis_car" depart="312.00" departLane="best">
        <route edges="23370756 745062638#1 747853030 744949908 1212504575 744944960#0 744944972#1 -746649485#0"/>
    </vehicle>
    <vehicle id="105" type="thesis_car" depart="315.00" departLane="best">
        <route edges="747951014#0 744645402#1"/>
    </vehicle>
    <vehicle id="106" type="thesis_car" depart="318.00" departLane="best">