<configuration>
<input>
<net-file value="intersection.net.xml"/>
<route-files value="trips.trips.xml"/>
</input>
<time>
<begin value="0"/>
<end value="3600"/>
</time>
</configuration>