<?xml version="1.0" encoding="UTF-8"?>

<!-- generated on 2026-01-12T14:56:37.419099+08:00 by Eclipse SUMO netedit 1.25.0
<neteditConfiguration xmlns:xsi="http://www.w3.org/2001/XMLSchema-instance" xsi:noNamespaceSchemaLocation="http://sumo.dlr.de/xsd/neteditConfiguration.xsd">

    <input>
        <sumocfg-file value="C:\Users\ASUS\Documents\SUMO_Networks\scenarios\test_simple_2lanes\Configuration.sumocfg"/>
        <route-files value="C:\Users\ASUS\Documents\SUMO_Networks\scenarios\test_simple_2lanes\trips.trips.xml"/>
        <sumo-net-file value="C:\Users\ASUS\Documents\SUMO_Networks\scenarios\test_simple_2lanes\final_map.net.xml"/>
    </input>

    <output>
        <output-file value="C:\Users\ASUS\Documents\SUMO_Networks\scenarios\test_simple_2lanes\intersection.net.xml"/>
    </output>

    <processing>
        <geometry.min-radius.fix.railways value="false"/>
        <geometry.avoid-overlap value="false"/>
        <geometry.max-grade.fix value="false"/>
        <offset.disable-normalization value="true"/>
        <lefthand value="0"/>
    </processing>

    <junctions>
        <no-turnarounds value="true"/>
        <junctions.corner-detail value="5"/>
        <junctions.limit-turn-speed value="5.50"/>
        <rectangular-lane-cut value="0"/>
    </junctions>

    <pedestrian>
        <walkingareas value="0"/>
    </pedestrian>

</neteditConfiguration>
-->

<net version="1.20" junctionCornerDetail="5" limitTurnSpeed="5.50" avoidOverlap="0" xmlns:xsi="http://www.w3.org/2001/XMLSchema-instance" xsi:noNamespaceSchemaLocation="http://sumo.dlr.de/xsd/net_file.xsd">

    <location netOffset="0.00,0.00" convBoundary="-600.00,-500.00,900.10,1000.10" origBoundary="-10000000000.00,-10000000000.00,10000000000.00,10000000000.00" projParameter="!"/>

    <edge id=":J1_0" function="internal">
        <lane id=":J1_0_0" index="0" speed="6.51" length="9.03" shape="395.20,510.40 394.85,507.95 393.80,506.20 392.05,505.15 389.60,504.80"/>
    </edge>
    <edge id=":J1_1" function="internal">
        <lane id=":J1_1_0" index="0" speed="13.89" length="20.80" shape="395.20,510.40 395.20,489.60"/>
        <lane id=":J1_1_1" index="1" speed="13.89" length="20.80" shape="398.40,510.40 398.40,489.60"/>
    </edge>
    <edge id=":J1_3" function="internal">
        <lane id=":J1_3_0" index="0" speed="9.26" length="5.01" shape="398.40,510.40 399.11,505.44"/>
    </edge>
    <edge id=":J1_16" function="internal">
        <lane id=":J1_16_0" index="0" speed="9.26" length="14.34" shape="399.11,505.44 399.15,505.15 401.40,501.40 405.15,499.15 410.40,498.40"/>
    </edge>
    <edge id=":J1_4" function="internal">
        <lane id=":J1_4_0" index="0" speed="6.51" length="9.03" shape="410.40,504.80 407.95,505.15 406.20,506.20 405.15,507.95 404.80,510.40"/>
    </edge>
    <edge id=":J1_5" function="internal">
        <lane id=":J1_5_0" index="0" speed="13.89" length="20.80" shape="410.40,504.80 389.60,504.80"/>
        <lane id=":J1_5_1" index="1" speed="13.89" length="20.80" shape="410.40,501.60 389.60,501.60"/>
    </edge>
    <edge id=":J1_7" function="internal">
        <lane id=":J1_7_0" index="0" speed="9.26" length="5.01" shape="410.40,501.60 405.44,500.89"/>
    </edge>
    <edge id=":J1_17" function="internal">
        <lane id=":J1_17_0" index="0" speed="9.26" length="14.34" shape="405.44,500.89 405.15,500.85 401.40,498.60 399.15,494.85 398.40,489.60"/>
    </edge>
    <edge id=":J1_8" function="internal">
        <lane id=":J1_8_0" index="0" speed="6.51" length="9.03" shape="404.80,489.60 405.15,492.05 406.20,493.80 407.95,494.85 410.40,495.20"/>
    </edge>
    <edge id=":J1_9" function="internal">
        <lane id=":J1_9_0" index="0" speed="13.89" length="20.80" shape="404.80,489.60 404.80,510.40"/>
        <lane id=":J1_9_1" index="1" speed="13.89" length="20.80" shape="401.60,489.60 401.60,510.40"/>
    </edge>
    <edge id=":J1_11" function="internal">
        <lane id=":J1_11_0" index="0" speed="9.26" length="5.01" shape="401.60,489.60 400.89,494.56"/>
    </edge>
    <edge id=":J1_18" function="internal">
        <lane id=":J1_18_0" index="0" speed="9.26" length="14.34" shape="400.89,494.56 400.85,494.85 398.60,498.60 394.85,500.85 389.60,501.60"/>
    </edge>
    <edge id=":J1_12" function="internal">
        <lane id=":J1_12_0" index="0" speed="6.51" length="9.03" shape="389.60,495.20 392.05,494.85 393.80,493.80 394.85,492.05 395.20,489.60"/>
    </edge>
    <edge id=":J1_13" function="internal">
        <lane id=":J1_13_0" index="0" speed="13.89" length="20.80" shape="389.60,495.20 410.40,495.20"/>
        <lane id=":J1_13_1" index="1" speed="13.89" length="20.80" shape="389.60,498.40 410.40,498.40"/>
    </edge>
    <edge id=":J1_15" function="internal">
        <lane id=":J1_15_0" index="0" speed="9.26" length="5.01" shape="389.60,498.40 394.56,499.11"/>
    </edge>
    <edge id=":J1_19" function="internal">
        <lane id=":J1_19_0" index="0" speed="9.26" length="14.34" shape="394.56,499.11 394.85,499.15 398.60,501.40 400.85,505.15 401.60,510.40"/>
    </edge>
    <edge id=":J2_0" function="internal">
        <lane id=":J2_0_0" index="0" speed="6.51" length="9.03" shape="-104.80,510.40 -105.15,507.95 -106.20,506.20 -107.95,505.15 -110.40,504.80"/>
    </edge>
    <edge id=":J2_1" function="internal">
        <lane id=":J2_1_0" index="0" speed="13.89" length="20.80" shape="-104.80,510.40 -104.80,489.60"/>
        <lane id=":J2_1_1" index="1" speed="13.89" length="20.80" shape="-101.60,510.40 -101.60,489.60"/>
    </edge>
    <edge id=":J2_3" function="internal">
        <lane id=":J2_3_0" index="0" speed="9.26" length="5.02" shape="-101.60,510.40 -100.89,505.43"/>
    </edge>
    <edge id=":J2_16" function="internal">
        <lane id=":J2_16_0" index="0" speed="9.26" length="14.34" shape="-100.89,505.43 -100.85,505.15 -98.60,501.40 -94.85,499.15 -89.60,498.40"/>
    </edge>
    <edge id=":J2_4" function="internal">
        <lane id=":J2_4_0" index="0" speed="6.51" length="9.03" shape="-89.60,504.80 -92.05,505.15 -93.80,506.20 -94.85,507.95 -95.20,510.40"/>
    </edge>
    <edge id=":J2_5" function="internal">
        <lane id=":J2_5_0" index="0" speed="13.89" length="20.80" shape="-89.60,504.80 -110.40,504.80"/>
        <lane id=":J2_5_1" index="1" speed="13.89" length="20.80" shape="-89.60,501.60 -110.40,501.60"/>
    </edge>
    <edge id=":J2_7" function="internal">
        <lane id=":J2_7_0" index="0" speed="9.26" length="5.01" shape="-89.60,501.60 -94.56,500.89"/>
    </edge>
    <edge id=":J2_17" function="internal">
        <lane id=":J2_17_0" index="0" speed="9.26" length="14.34" shape="-94.56,500.89 -94.85,500.85 -98.60,498.60 -100.85,494.85 -101.60,489.60"/>
    </edge>
    <edge id=":J2_8" function="internal">
        <lane id=":J2_8_0" index="0" speed="6.51" length="9.03" shape="-95.20,489.60 -94.85,492.05 -93.80,493.80 -92.05,494.85 -89.60,495.20"/>
    </edge>
    <edge id=":J2_9" function="internal">
        <lane id=":J2_9_0" index="0" speed="13.89" length="20.80" shape="-95.20,489.60 -95.20,510.40"/>
        <lane id=":J2_9_1" index="1" speed="13.89" length="20.80" shape="-98.40,489.60 -98.40,510.40"/>
    </edge>
    <edge id=":J2_11" function="internal">
        <lane id=":J2_11_0" index="0" speed="9.26" length="5.01" shape="-98.40,489.60 -99.11,494.56"/>
    </edge>
    <edge id=":J2_18" function="internal">
        <lane id=":J2_18_0" index="0" speed="9.26" length="14.34" shape="-99.11,494.56 -99.15,494.85 -101.40,498.60 -105.15,500.85 -110.40,501.60"/>
    </edge>
    <edge id=":J2_12" function="internal">
        <lane id=":J2_12_0" index="0" speed="6.51" length="9.03" shape="-110.40,495.20 -107.95,494.85 -106.20,493.80 -105.15,492.05 -104.80,489.60"/>
    </edge>
    <edge id=":J2_13" function="internal">
        <lane id=":J2_13_0" index="0" speed="13.89" length="20.80" shape="-110.40,495.20 -89.60,495.20"/>
        <lane id=":J2_13_1" index="1" speed="13.89" length="20.80" shape="-110.40,498.40 -89.60,498.40"/>
    </edge>
    <edge id=":J2_15" function="internal">
        <lane id=":J2_15_0" index="0" speed="9.26" length="5.01" shape="-110.40,498.40 -105.44,499.11"/>
    </edge>
    <edge id=":J2_19" function="internal">
        <lane id=":J2_19_0" index="0" speed="9.26" length="14.34" shape="-105.44,499.11 -105.15,499.15 -101.40,501.40 -99.15,505.15 -98.40,510.40"/>
    </edge>
    <edge id=":J4_0" function="internal">
        <lane id=":J4_0_0" index="0" speed="6.51" length="9.03" shape="395.20,10.40 394.85,7.95 393.80,6.20 392.05,5.15 389.60,4.80"/>
    </edge>
    <edge id=":J4_1" function="internal">
        <lane id=":J4_1_0" index="0" speed="13.89" length="20.80" shape="395.20,10.40 395.20,-10.40"/>
        <lane id=":J4_1_1" index="1" speed="13.89" length="20.80" shape="398.40,10.40 398.40,-10.40"/>
    </edge>
    <edge id=":J4_3" function="internal">
        <lane id=":J4_3_0" index="0" speed="9.26" length="5.01" shape="398.40,10.40 399.11,5.44"/>
    </edge>
    <edge id=":J4_16" function="internal">
        <lane id=":J4_16_0" index="0" speed="9.26" length="14.34" shape="399.11,5.44 399.15,5.15 401.40,1.40 405.15,-0.85 410.40,-1.60"/>
    </edge>
    <edge id=":J4_4" function="internal">
        <lane id=":J4_4_0" index="0" speed="6.51" length="9.03" shape="410.40,4.80 407.95,5.15 406.20,6.20 405.15,7.95 404.80,10.40"/>
    </edge>
    <edge id=":J4_5" function="internal">
        <lane id=":J4_5_0" index="0" speed="13.89" length="20.80" shape="410.40,4.80 389.60,4.80"/>
        <lane id=":J4_5_1" index="1" speed="13.89" length="20.80" shape="410.40,1.60 389.60,1.60"/>
    </edge>
    <edge id=":J4_7" function="internal">
        <lane id=":J4_7_0" index="0" speed="9.26" length="5.01" shape="410.40,1.60 405.44,0.89"/>
    </edge>
    <edge id=":J4_17" function="internal">
        <lane id=":J4_17_0" index="0" speed="9.26" length="14.34" shape="405.44,0.89 405.15,0.85 401.40,-1.40 399.15,-5.15 398.40,-10.40"/>
    </edge>
    <edge id=":J4_8" function="internal">
        <lane id=":J4_8_0" index="0" speed="6.51" length="9.03" shape="404.80,-10.40 405.15,-7.95 406.20,-6.20 407.95,-5.15 410.40,-4.80"/>
    </edge>
    <edge id=":J4_9" function="internal">
        <lane id=":J4_9_0" index="0" speed="13.89" length="20.80" shape="404.80,-10.40 404.80,10.40"/>
        <lane id=":J4_9_1" index="1" speed="13.89" length="20.80" shape="401.60,-10.40 401.60,10.40"/>
    </edge>
    <edge id=":J4_11" function="internal">
        <lane id=":J4_11_0" index="0" speed="9.26" length="5.01" shape="401.60,-10.40 400.89,-5.44"/>
    </edge>
    <edge id=":J4_18" function="internal">
        <lane id=":J4_18_0" index="0" speed="9.26" length="14.34" shape="400.89,-5.44 400.85,-5.15 398.60,-1.40 394.85,0.85 389.60,1.60"/>
    </edge>
    <edge id=":J4_12" function="internal">
        <lane id=":J4_12_0" index="0" speed="6.51" length="9.03" shape="389.60,-4.80 392.05,-5.15 393.80,-6.20 394.85,-7.95 395.20,-10.40"/>
    </edge>
    <edge id=":J4_13" function="internal">
        <lane id=":J4_13_0" index="0" speed="13.89" length="20.80" shape="389.60,-4.80 410.40,-4.80"/>
        <lane id=":J4_13_1" index="1" speed="13.89" length="20.80" shape="389.60,-1.60 410.40,-1.60"/>
    </edge>
    <edge id=":J4_15" function="internal">
        <lane id=":J4_15_0" index="0" speed="9.26" length="5.02" shape="389.60,-1.60 394.57,-0.89"/>
    </edge>
    <edge id=":J4_19" function="internal">
        <lane id=":J4_19_0" index="0" speed="9.26" length="14.34" shape="394.57,-0.89 394.85,-0.85 398.60,1.40 400.85,5.15 401.60,10.40"/>
    </edge>
    <edge id=":J6_0" function="internal">
        <lane id=":J6_0_0" index="0" speed="6.51" length="9.03" shape="-104.80,10.40 -105.15,7.95 -106.20,6.20 -107.95,5.15 -110.40,4.80"/>
    </edge>
    <edge id=":J6_1" function="internal">
        <lane id=":J6_1_0" index="0" speed="13.89" length="20.80" shape="-104.80,10.40 -104.80,-10.40"/>
        <lane id=":J6_1_1" index="1" speed="13.89" length="20.80" shape="-101.60,10.40 -101.60,-10.40"/>
    </edge>
    <edge id=":J6_3" function="internal">
        <lane id=":J6_3_0" index="0" speed="9.26" length="5.01" shape="-101.60,10.40 -100.89,5.44"/>
    </edge>
    <edge id=":J6_16" function="internal">
        <lane id=":J6_16_0" index="0" speed="9.26" length="14.34" shape="-100.89,5.44 -100.85,5.15 -98.60,1.40 -94.85,-0.85 -89.60,-1.60"/>
    </edge>
    <edge id=":J6_4" function="internal">
        <lane id=":J6_4_0" index="0" speed="6.51" length="9.03" shape="-89.60,4.80 -92.05,5.15 -93.80,6.20 -94.85,7.95 -95.20,10.40"/>
    </edge>
    <edge id=":J6_5" function="internal">
        <lane id=":J6_5_0" index="0" speed="13.89" length="20.80" shape="-89.60,4.80 -110.40,4.80"/>
        <lane id=":J6_5_1" index="1" speed="13.89" length="20.80" shape="-89.60,1.60 -110.40,1.60"/>
    </edge>
    <edge id=":J6_7" function="internal">
        <lane id=":J6_7_0" index="0" speed="9.26" length="5.01" shape="-89.60,1.60 -94.56,0.89"/>
    </edge>
    <edge id=":J6_17" function="internal">
        <lane id=":J6_17_0" index="0" speed="9.26" length="14.34" shape="-94.56,0.89 -94.85,0.85 -98.60,-1.40 -100.85,-5.15 -101.60,-10.40"/>
    </edge>
    <edge id=":J6_8" function="internal">
        <lane id=":J6_8_0" index="0" speed="6.51" length="9.03" shape="-95.20,-10.40 -94.85,-7.95 -93.80,-6.20 -92.05,-5.15 -89.60,-4.80"/>
    </edge>
    <edge id=":J6_9" function="internal">
        <lane id=":J6_9_0" index="0" speed="13.89" length="20.80" shape="-95.20,-10.40 -95.20,10.40"/>
        <lane id=":J6_9_1" index="1" speed="13.89" length="20.80" shape="-98.40,-10.40 -98.40,10.40"/>
    </edge>
    <edge id=":J6_11" function="internal">
        <lane id=":J6_11_0" index="0" speed="9.26" length="5.01" shape="-98.40,-10.40 -99.11,-5.44"/>
    </edge>
    <edge id=":J6_18" function="internal">
        <lane id=":J6_18_0" index="0" speed="9.26" length="14.34" shape="-99.11,-5.44 -99.15,-5.15 -101.40,-1.40 -105.15,0.85 -110.40,1.60"/>
    </edge>
    <edge id=":J6_12" function="internal">
        <lane id=":J6_12_0" index="0" speed="6.51" length="9.03" shape="-110.40,-4.80 -107.95,-5.15 -106.20,-6.20 -105.15,-7.95 -104.80,-10.40"/>
    </edge>
    <edge id=":J6_13" function="internal">
        <lane id=":J6_13_0" index="0" speed="13.89" length="20.80" shape="-110.40,-4.80 -89.60,-4.80"/>
        <lane id=":J6_13_1" index="1" speed="13.89" length="20.80" shape="-110.40,-1.60 -89.60,-1.60"/>
    </edge>
    <edge id=":J6_15" function="internal">
        <lane id=":J6_15_0" index="0" speed="9.26" length="5.01" shape="-110.40,-1.60 -105.44,-0.89"/>
    </edge>
    <edge id=":J6_19" function="internal">
        <lane id=":J6_19_0" index="0" speed="9.26" length="14.34" shape="-105.44,-0.89 -105.15,-0.85 -101.40,1.40 -99.15,5.15 -98.40,10.40"/>
    </edge>

    <edge id="-E0" from="J1" to="J0" priority="-1">
        <lane id="-E0_0" index="0" speed="13.89" length="489.60" shape="410.40,495.20 900.00,495.20"/>
        <lane id="-E0_1" index="1" speed="13.89" length="489.60" shape="410.40,498.40 900.00,498.40"/>
    </edge>
    <edge id="-E1" from="J2" to="J1" priority="-1">
        <lane id="-E1_0" index="0" speed="13.89" length="479.20" shape="-89.60,495.20 389.60,495.20"/>
        <lane id="-E1_1" index="1" speed="13.89" length="479.20" shape="-89.60,498.40 389.60,498.40"/>
    </edge>
    <edge id="-E10" from="J10" to="J6" priority="-1">
        <lane id="-E10_0" index="0" speed="13.89" length="489.60" shape="-600.00,-4.80 -110.40,-4.80"/>
        <lane id="-E10_1" index="1" speed="13.89" length="489.60" shape="-600.00,-1.60 -110.40,-1.60"/>
    </edge>
    <edge id="-E11" from="J11" to="J6" priority="-1">
        <lane id="-E11_0" index="0" speed="13.89" length="489.60" shape="-95.20,-500.00 -95.20,-10.40"/>
        <lane id="-E11_1" index="1" speed="13.89" length="489.60" shape="-98.40,-500.00 -98.40,-10.40"/>
    </edge>
    <edge id="-E2" from="J3" to="J2" priority="-1">
        <lane id="-E2_0" index="0" speed="13.89" length="489.60" shape="-600.00,495.20 -110.40,495.20"/>
        <lane id="-E2_1" index="1" speed="13.89" length="489.60" shape="-600.00,498.40 -110.40,498.40"/>
    </edge>
    <edge id="-E3" from="J4" to="J1" priority="-1">
        <lane id="-E3_0" index="0" speed="13.89" length="479.20" shape="404.80,10.40 404.80,489.60"/>
        <lane id="-E3_1" index="1" speed="13.89" length="479.20" shape="401.60,10.40 401.60,489.60"/>
    </edge>
    <edge id="-E4" from="J5" to="J1" priority="-1">
        <lane id="-E4_0" index="0" speed="13.89" length="489.60" shape="395.20,1000.00 395.20,510.40"/>
        <lane id="-E4_1" index="1" speed="13.89" length="489.60" shape="398.40,1000.00 398.40,510.40"/>
    </edge>
    <edge id="-E5" from="J6" to="J2" priority="-1">
        <lane id="-E5_0" index="0" speed="13.89" length="479.20" shape="-95.20,10.40 -95.20,489.60"/>
        <lane id="-E5_1" index="1" speed="13.89" length="479.20" shape="-98.40,10.40 -98.40,489.60"/>
    </edge>
    <edge id="-E6" from="J7" to="J2" priority="-1" shape="-99.90,1000.10 -100.00,500.00">
        <lane id="-E6_0" index="0" speed="13.89" length="489.60" shape="-104.70,1000.00 -104.80,510.40"/>
        <lane id="-E6_1" index="1" speed="13.89" length="489.60" shape="-101.50,1000.00 -101.60,510.40"/>
    </edge>
    <edge id="-E7" from="J4" to="J6" priority="-1">
        <lane id="-E7_0" index="0" speed="13.89" length="479.20" shape="389.60,4.80 -89.60,4.80"/>
        <lane id="-E7_1" index="1" speed="13.89" length="479.20" shape="389.60,1.60 -89.60,1.60"/>
    </edge>
    <edge id="-E8" from="J8" to="J4" priority="-1" shape="900.10,0.10 400.00,0.00">
        <lane id="-E8_0" index="0" speed="13.89" length="489.60" shape="900.00,4.90 410.40,4.80"/>
        <lane id="-E8_1" index="1" speed="13.89" length="489.60" shape="900.00,1.70 410.40,1.60"/>
    </edge>
    <edge id="-E9" from="J9" to="J4" priority="-1">
        <lane id="-E9_0" index="0" speed="13.89" length="489.60" shape="404.80,-500.00 404.80,-10.40"/>
        <lane id="-E9_1" index="1" speed="13.89" length="489.60" shape="401.60,-500.00 401.60,-10.40"/>
    </edge>
    <edge id="E0" from="J0" to="J1" priority="-1">
        <lane id="E0_0" index="0" speed="13.89" length="489.60" shape="900.00,504.80 410.40,504.80"/>
        <lane id="E0_1" index="1" speed="13.89" length="489.60" shape="900.00,501.60 410.40,501.60"/>
    </edge>
    <edge id="E1" from="J1" to="J2" priority="-1">
        <lane id="E1_0" index="0" speed="13.89" length="479.20" shape="389.60,504.80 -89.60,504.80"/>
        <lane id="E1_1" index="1" speed="13.89" length="479.20" shape="389.60,501.60 -89.60,501.60"/>
    </edge>
    <edge id="E10" from="J6" to="J10" priority="-1">
        <lane id="E10_0" index="0" speed="13.89" length="489.60" shape="-110.40,4.80 -600.00,4.80"/>
        <lane id="E10_1" index="1" speed="13.89" length="489.60" shape="-110.40,1.60 -600.00,1.60"/>
    </edge>
    <edge id="E11" from="J6" to="J11" priority="-1">
        <lane id="E11_0" index="0" speed="13.89" length="489.60" shape="-104.80,-10.40 -104.80,-500.00"/>
        <lane id="E11_1" index="1" speed="13.89" length="489.60" shape="-101.60,-10.40 -101.60,-500.00"/>
    </edge>
    <edge id="E2" from="J2" to="J3" priority="-1">
        <lane id="E2_0" index="0" speed="13.89" length="489.60" shape="-110.40,504.80 -600.00,504.80"/>
        <lane id="E2_1" index="1" speed="13.89" length="489.60" shape="-110.40,501.60 -600.00,501.60"/>
    </edge>
    <edge id="E3" from="J1" to="J4" priority="-1">
        <lane id="E3_0" index="0" speed="13.89" length="479.20" shape="395.20,489.60 395.20,10.40"/>
        <lane id="E3_1" index="1" speed="13.89" length="479.20" shape="398.40,489.60 398.40,10.40"/>
    </edge>
    <edge id="E4" from="J1" to="J5" priority="-1">
        <lane id="E4_0" index="0" speed="13.89" length="489.60" shape="404.80,510.40 404.80,1000.00"/>
        <lane id="E4_1" index="1" speed="13.89" length="489.60" shape="401.60,510.40 401.60,1000.00"/>
    </edge>
    <edge id="E5" from="J2" to="J6" priority="-1">
        <lane id="E5_0" index="0" speed="13.89" length="479.20" shape="-104.80,489.60 -104.80,10.40"/>
        <lane id="E5_1" index="1" speed="13.89" length="479.20" shape="-101.60,489.60 -101.60,10.40"/>
    </edge>
    <edge id="E6" from="J2" to="J7" priority="-1" shape="-100.00,500.00 -99.90,1000.10">
        <lane id="E6_0" index="0" speed="13.89" length="489.60" shape="-95.20,510.40 -95.10,1000.00"/>
        <lane id="E6_1" index="1" speed="13.89" length="489.60" shape="-98.40,510.40 -98.30,1000.00"/>
    </edge>
    <edge id="E7" from="J6" to="J4" priority="-1">
        <lane id="E7_0" index="0" speed="13.89" length="479.20" shape="-89.60,-4.80 389.60,-4.80"/>
        <lane id="E7_1" index="1" speed="13.89" length="479.20" shape="-89.60,-1.60 389.60,-1.60"/>
    </edge>
    <edge id="E8" from="J4" to="J8" priority="-1" shape="400.00,0.00 900.10,0.10">
        <lane id="E8_0" index="0" speed="13.89" length="489.60" shape="410.40,-4.80 900.00,-4.70"/>
        <lane id="E8_1" index="1" speed="13.89" length="489.60" shape="410.40,-1.60 900.00,-1.50"/>
    </edge>
    <edge id="E9" from="J4" to="J9" priority="-1">
        <lane id="E9_0" index="0" speed="13.89" length="489.60" shape="395.20,-10.40 395.20,-500.00"/>
        <lane id="E9_1" index="1" speed="13.89" length="489.60" shape="398.40,-10.40 398.40,-500.00"/>
    </edge>

    <tlLogic id="J1" type="actuated" programID="0" offset="0">
        <phase duration="42" state="GGGgrrrrGGGgrrrr" minDur="5" maxDur="50"/>
        <phase duration="3"  state="yyyyrrrryyyyrrrr"/>
        <phase duration="42" state="rrrrGGGgrrrrGGGg" minDur="5" maxDur="50"/>
        <phase duration="3"  state="rrrryyyyrrrryyyy"/>
    </tlLogic>
    <tlLogic id="J2" type="actuated" programID="0" offset="0">
        <phase duration="42" state="rrrrGGGgrrrrGGGg" minDur="5" maxDur="50"/>
        <phase duration="3"  state="rrrryyyyrrrryyyy"/>
        <phase duration="42" state="GGGgrrrrGGGgrrrr" minDur="5" maxDur="50"/>
        <phase duration="3"  state="yyyyrrrryyyyrrrr"/>
    </tlLogic>
    <tlLogic id="J4" type="actuated" programID="0" offset="0">
        <phase duration="42" state="GGGgrrrrGGGgrrrr" minDur="5" maxDur="50"/>
        <phase duration="3"  state="yyyyrrrryyyyrrrr"/>
        <phase duration="42" state="rrrrGGGgrrrrGGGg" minDur="5" maxDur="50"/>
        <phase duration="3"  state="rrrryyyyrrrryyyy"/>
    </tlLogic>
    <tlLogic id="J6" type="actuated" programID="0" offset="0">
        <phase duration="42" state="GGGgrrrrGGGgrrrr" minDur="5" maxDur="50"/>
        <phase duration="3"  state="yyyyrrrryyyyrrrr"/>
        <phase duration="42" state="rrrrGGGgrrrrGGGg" minDur="5" maxDur="50"/>
        <phase duration="3"  state="rrrryyyyrrrryyyy"/>
    </tlLogic>

    <junction id="J0" type="dead_end" x="900.00" y="500.00" incLanes="-E0_0 -E0_1" intLanes="" shape="900.00,500.00 900.00,493.60 900.00,500.00"/>
    <junction id="J1" type="traffic_light" x="400.00" y="500.00" incLanes="-E4_0 -E4_1 E0_0 E0_1 -E3_0 -E3_1 -E1_0 -E1_1" intLanes=":J1_0_0 :J1_1_0 :J1_1_1 :J1_16_0 :J1_4_0 :J1_5_0 :J1_5_1 :J1_17_0 :J1_8_0 :J1_9_0 :J1_9_1 :J1_18_0 :J1_12_0 :J1_13_0 :J1_13_1 :J1_19_0" shape="393.60,510.40 406.40,510.40 406.84,508.18 407.40,507.40 408.18,506.84 409.18,506.51 410.40,506.40 410.40,493.60 408.18,493.16 407.40,492.60 406.84,491.82 406.51,490.82 406.40,489.60 393.60,489.60 393.16,491.82 392.60,492.60 391.82,493.16 390.82,493.49 389.60,493.60 389.60,506.40 391.82,506.84 392.60,507.40 393.16,508.18 393.49,509.18">
        <request index="0"  response="0000000000000000" foes="0000000001100000" cont="0"/>
        <request index="1"  response="1000000000000000" foes="1111100011100000" cont="0"/>
        <request index="2"  response="1000000010000000" foes="1111100011100000" cont="0"/>
        <request index="3"  response="1000011010000000" foes="1110011011100000" cont="1"/>
        <request index="4"  response="0000011000000000" foes="0000011000000000" cont="0"/>
        <request index="5"  response="0000111000001111" foes="1000111000001111" cont="0"/>
        <request index="6"  response="0000111000001111" foes="1000111000001111" cont="0"/>
        <request index="7"  response="0110111000001110" foes="0110111000001110" cont="1"/>
        <request index="8"  response="0000000000000000" foes="0110000000000000" cont="0"/>
        <request index="9"  response="0000000010000000" foes="1110000011111000" cont="0"/>
        <request index="10" response="1000000010000000" foes="1110000011111000" cont="0"/>
        <request index="11" response="1000000010000110" foes="1110000011100110" cont="1"/>
        <request index="12" response="0000000000000110" foes="0000000000000110" cont="0"/>
        <request index="13" response="0000111100001110" foes="0000111110001110" cont="0"/>
        <request index="14" response="0000111100001110" foes="0000111110001110" cont="0"/>
        <request index="15" response="0000111001101110" foes="0000111001101110" cont="1"/>
    </junction>
    <junction id="J10" type="dead_end" x="-600.00" y="0.00" incLanes="E10_0 E10_1" intLanes="" shape="-600.00,0.00 -600.00,6.40 -600.00,0.00"/>
    <junction id="J11" type="dead_end" x="-100.00" y="-500.00" incLanes="E11_0 E11_1" intLanes="" shape="-100.00,-500.00 -106.40,-500.00 -100.00,-500.00"/>
    <junction id="J2" type="traffic_light" x="-100.00" y="500.00" incLanes="-E6_0 -E6_1 E1_0 E1_1 -E5_0 -E5_1 -E2_0 -E2_1" intLanes=":J2_0_0 :J2_1_0 :J2_1_1 :J2_16_0 :J2_4_0 :J2_5_0 :J2_5_1 :J2_17_0 :J2_8_0 :J2_9_0 :J2_9_1 :J2_18_0 :J2_12_0 :J2_13_0 :J2_13_1 :J2_19_0" shape="-106.40,510.40 -93.60,510.40 -93.15,508.18 -92.60,507.40 -91.82,506.84 -90.82,506.51 -89.60,506.40 -89.60,493.60 -91.82,493.16 -92.60,492.60 -93.16,491.82 -93.49,490.82 -93.60,489.60 -106.40,489.60 -106.84,491.82 -107.40,492.60 -108.18,493.16 -109.18,493.49 -110.40,493.60 -110.40,506.40 -108.18,506.84 -107.40,507.40 -106.84,508.18 -106.51,509.18">
        <request index="0"  response="0000000001100000" foes="0000000001100000" cont="0"/>
        <request index="1"  response="1111000011100000" foes="1111100011100000" cont="0"/>
        <request index="2"  response="1111000011100000" foes="1111100011100000" cont="0"/>
        <request index="3"  response="1110011011100000" foes="1110011011100000" cont="1"/>
        <request index="4"  response="0000000000000000" foes="0000011000000000" cont="0"/>
        <request index="5"  response="0000000000001000" foes="1000111000001111" cont="0"/>
        <request index="6"  response="0000100000001000" foes="1000111000001111" cont="0"/>
        <request index="7"  response="0110100000001000" foes="0110111000001110" cont="1"/>
        <request index="8"  response="0110000000000000" foes="0110000000000000" cont="0"/>
        <request index="9"  response="1110000011110000" foes="1110000011111000" cont="0"/>
        <request index="10" response="1110000011110000" foes="1110000011111000" cont="0"/>
        <request index="11" response="1110000011100110" foes="1110000011100110" cont="1"/>
        <request index="12" response="0000000000000000" foes="0000000000000110" cont="0"/>
        <request index="13" response="0000100000000000" foes="0000111110001110" cont="0"/>
        <request index="14" response="0000100000001000" foes="0000111110001110" cont="0"/>
        <request index="15" response="0000100001101000" foes="0000111001101110" cont="1"/>
    </junction>
    <junction id="J3" type="dead_end" x="-600.00" y="500.00" incLanes="E2_0 E2_1" intLanes="" shape="-600.00,500.00 -600.00,506.40 -600.00,500.00"/>
    <junction id="J4" type="traffic_light" x="400.00" y="0.00" incLanes="E3_0 E3_1 -E8_0 -E8_1 -E9_0 -E9_1 E7_0 E7_1" intLanes=":J4_0_0 :J4_1_0 :J4_1_1 :J4_16_0 :J4_4_0 :J4_5_0 :J4_5_1 :J4_17_0 :J4_8_0 :J4_9_0 :J4_9_1 :J4_18_0 :J4_12_0 :J4_13_0 :J4_13_1 :J4_19_0" shape="393.60,10.40 406.40,10.40 406.84,8.18 407.40,7.40 408.18,6.85 409.18,6.51 410.40,6.40 410.40,-6.40 408.18,-6.84 407.40,-7.40 406.84,-8.18 406.51,-9.18 406.40,-10.40 393.60,-10.40 393.16,-8.18 392.60,-7.40 391.82,-6.84 390.82,-6.51 389.60,-6.40 389.60,6.40 391.82,6.84 392.60,7.40 393.16,8.18 393.49,9.18">
        <request index="0"  response="0000000000000000" foes="0000000001100000" cont="0"/>
        <request index="1"  response="1000000000000000" foes="1111100011100000" cont="0"/>
        <request index="2"  response="1000000010000000" foes="1111100011100000" cont="0"/>
        <request index="3"  response="1000011010000000" foes="1110011011100000" cont="1"/>
        <request index="4"  response="0000011000000000" foes="0000011000000000" cont="0"/>
        <request index="5"  response="0000111000001111" foes="1000111000001111" cont="0"/>
        <request index="6"  response="0000111000001111" foes="1000111000001111" cont="0"/>
        <request index="7"  response="0110111000001110" foes="0110111000001110" cont="1"/>
        <request index="8"  response="0000000000000000" foes="0110000000000000" cont="0"/>
        <request index="9"  response="0000000010000000" foes="1110000011111000" cont="0"/>
        <request index="10" response="1000000010000000" foes="1110000011111000" cont="0"/>
        <request index="11" response="1000000010000110" foes="1110000011100110" cont="1"/>
        <request index="12" response="0000000000000110" foes="0000000000000110" cont="0"/>
        <request index="13" response="0000111100001110" foes="0000111110001110" cont="0"/>
        <request index="14" response="0000111100001110" foes="0000111110001110" cont="0"/>
        <request index="15" response="0000111001101110" foes="0000111001101110" cont="1"/>
    </junction>
    <junction id="J5" type="dead_end" x="400.00" y="1000.00" incLanes="E4_0 E4_1" intLanes="" shape="400.00,1000.00 406.40,1000.00 400.00,1000.00"/>