<?xml version="1.0" encoding="UTF-8"?>

<!-- generated on 2025-12-19T15:59:07.529609+08:00 by Eclipse SUMO netedit 1.25.0
<neteditConfiguration xmlns:xsi="http://www.w3.org/2001/XMLSchema-instance" xsi:noNamespaceSchemaLocation="http://sumo.dlr.de/xsd/neteditConfiguration.xsd">

    <input>
        <sumo-net-file value="C:\Users\ASUS\Documents\SUMO_Networks\Intersection.net.xml"/>
    </input>

    <output>
        <output-file value="C:\Users\ASUS\Documents\SUMO_Networks\Intersection.net.xml"/>
    </output>

    <processing>
        <geometry.min-radius.fix.railways value="false"/>
        <geometry.avoid-overlap value="false"/>
        <geometry.max-grade.fix value="false"/>
        <offset.disable-normalization value="true"/>
        <lefthand value="0"/>
    </processing>

    <junctions>
        <no-turnarounds value="true"/>
        <junctions.corner-detail value="5"/>
        <junctions.limit-turn-speed value="5.50"/>
        <rectangular-lane-cut value="0"/>
    </junctions>

    <pedestrian>
        <walkingareas value="0"/>
    </pedestrian>

</neteditConfiguration>
-->

<net version="1.20" junctionCornerDetail="5" limitTurnSpeed="5.50" avoidOverlap="0" xmlns:xsi="http://www.w3.org/2001/XMLSchema-instance" xsi:noNamespaceSchemaLocation="http://sumo.dlr.de/xsd/net_file.xsd">

    <location netOffset="0.00,0.00" convBoundary="-600.00,-500.00,900.10,1000.10" origBoundary="-10000000000.00,-10000000000.00,10000000000.00,10000000000.00" projParameter="!"/>

    <edge id=":J1_0" function="internal">
        <lane id=":J1_0_0" index="0" speed="6.51" length="9.03" shape="398.40,507.20 398.05,504.75 397.00,503.00 395.25,501.95 392.80,501.60"/>
    </edge>
    <edge id=":J1_1" function="internal">
        <lane id=":J1_1_0" index="0" speed="13.89" length="14.40" shape="398.40,507.20 398.40,492.80"/>
    </edge>
    <edge id=":J1_2" function="internal">
        <lane id=":J1_2_0" index="0" speed="8.00" length="4.07" shape="398.40,507.20 398.95,503.35 399.04,503.20"/>
    </edge>
    <edge id=":J1_12" function="internal">
        <lane id=":J1_12_0" index="0" speed="8.00" length="10.13" shape="399.04,503.20 400.60,500.60 403.35,498.95 407.20,498.40"/>
    </edge>
    <edge id=":J1_3" function="internal">
        <lane id=":J1_3_0" index="0" speed="6.51" length="9.03" shape="407.20,501.60 404.75,501.95 403.00,503.00 401.95,504.75 401.60,507.20"/>
    </edge>
    <edge id=":J1_4" function="internal">
        <lane id=":J1_4_0" index="0" speed="13.89" length="14.40" shape="407.20,501.60 392.80,501.60"/>
    </edge>
    <edge id=":J1_5" function="internal">
        <lane id=":J1_5_0" index="0" speed="8.00" length="4.07" shape="407.20,501.60 403.35,501.05 403.20,500.96"/>
    </edge>
    <edge id=":J1_13" function="internal">
        <lane id=":J1_13_0" index="0" speed="8.00" length="10.13" shape="403.20,500.96 400.60,499.40 398.95,496.65 398.40,492.80"/>
    </edge>
    <edge id=":J1_6" function="internal">
        <lane id=":J1_6_0" index="0" speed="6.51" length="9.03" shape="401.60,492.80 401.95,495.25 403.00,497.00 404.75,498.05 407.20,498.40"/>
    </edge>
    <edge id=":J1_7" function="internal">
        <lane id=":J1_7_0" index="0" speed="13.89" length="14.40" shape="401.60,492.80 401.60,507.20"/>
    </edge>
    <edge id=":J1_8" function="internal">
        <lane id=":J1_8_0" index="0" speed="8.00" length="4.07" shape="401.60,492.80 401.05,496.65 400.96,496.80"/>
    </edge>
    <edge id=":J1_14" function="internal">
        <lane id=":J1_14_0" index="0" speed="8.00" length="10.13" shape="400.96,496.80 399.40,499.40 396.65,501.05 392.80,501.60"/>
    </edge>
    <edge id=":J1_9" function="internal">
        <lane id=":J1_9_0" index="0" speed="6.51" length="9.03" shape="392.80,498.40 395.25,498.05 397.00,497.00 398.05,495.25 398.40,492.80"/>
    </edge>
    <edge id=":J1_10" function="internal">
        <lane id=":J1_10_0" index="0" speed="13.89" length="14.40" shape="392.80,498.40 407.20,498.40"/>
    </edge>
    <edge id=":J1_11" function="internal">
        <lane id=":J1_11_0" index="0" speed="8.00" length="4.07" shape="392.80,498.40 396.65,498.95 396.80,499.04"/>
    </edge>
    <edge id=":J1_15" function="internal">
        <lane id=":J1_15_0" index="0" speed="8.00" length="10.13" shape="396.80,499.04 399.40,500.60 401.05,503.35 401.60,507.20"/>
    </edge>
    <edge id=":J2_0" function="internal">
        <lane id=":J2_0_0" index="0" speed="6.51" length="9.03" shape="-101.60,507.20 -101.95,504.75 -103.00,503.00 -104.75,501.95 -107.20,501.60"/>
    </edge>
    <edge id=":J2_1" function="internal">
        <lane id=":J2_1_0" index="0" speed="13.89" length="14.40" shape="-101.60,507.20 -101.60,492.80"/>
    </edge>
    <edge id=":J2_2" function="internal">
        <lane id=":J2_2_0" index="0" speed="8.00" length="4.07" shape="-101.60,507.20 -101.05,503.35 -100.96,503.20"/>
    </edge>
    <edge id=":J2_12" function="internal">
        <lane id=":J2_12_0" index="0" speed="8.00" length="10.13" shape="-100.96,503.20 -99.40,500.60 -96.65,498.95 -92.80,498.40"/>
    </edge>
    <edge id=":J2_3" function="internal">
        <lane id=":J2_3_0" index="0" speed="6.51" length="9.03" shape="-92.80,501.60 -95.25,501.95 -97.00,503.00 -98.05,504.75 -98.40,507.20"/>
    </edge>
    <edge id=":J2_4" function="internal">
        <lane id=":J2_4_0" index="0" speed="13.89" length="14.40" shape="-92.80,501.60 -107.20,501.60"/>
    </edge>
    <edge id=":J2_5" function="internal">
        <lane id=":J2_5_0" index="0" speed="8.00" length="4.07" shape="-92.80,501.60 -96.65,501.05 -96.80,500.96"/>
    </edge>
    <edge id=":J2_13" function="internal">
        <lane id=":J2_13_0" index="0" speed="8.00" length="10.13" shape="-96.80,500.96 -99.40,499.40 -101.05,496.65 -101.60,492.80"/>
    </edge>
    <edge id=":J2_6" function="internal">
        <lane id=":J2_6_0" index="0" speed="6.51" length="9.03" shape="-98.40,492.80 -98.05,495.25 -97.00,497.00 -95.25,498.05 -92.80,498.40"/>
    </edge>
    <edge id=":J2_7" function="internal">
        <lane id=":J2_7_0" index="0" speed="13.89" length="14.40" shape="-98.40,492.80 -98.40,507.20"/>
    </edge>
    <edge id=":J2_8" function="internal">
        <lane id=":J2_8_0" index="0" speed="8.00" length="4.07" shape="-98.40,492.80 -98.95,496.65 -99.04,496.80"/>
    </edge>
    <edge id=":J2_14" function="internal">
        <lane id=":J2_14_0" index="0" speed="8.00" length="10.13" shape="-99.04,496.80 -100.60,499.40 -103.35,501.05 -107.20,501.60"/>
    </edge>
    <edge id=":J2_9" function="internal">
        <lane id=":J2_9_0" index="0" speed="6.51" length="9.03" shape="-107.20,498.40 -104.75,498.05 -103.00,497.00 -101.95,495.25 -101.60,492.80"/>
    </edge>
    <edge id=":J2_10" function="internal">
        <lane id=":J2_10_0" index="0" speed="13.89" length="14.40" shape="-107.20,498.40 -92.80,498.40"/>
    </edge>
    <edge id=":J2_11" function="internal">
        <lane id=":J2_11_0" index="0" speed="8.00" length="4.07" shape="-107.20,498.40 -103.35,498.95 -103.20,499.04"/>
    </edge>
    <edge id=":J2_15" function="internal">
        <lane id=":J2_15_0" index="0" speed="8.00" length="10.13" shape="-103.20,499.04 -100.60,500.60 -98.95,503.35 -98.40,507.20"/>
    </edge>
    <edge id=":J4_0" function="internal">
        <lane id=":J4_0_0" index="0" speed="6.51" length="9.03" shape="398.40,7.20 398.05,4.75 397.00,3.00 395.25,1.95 392.80,1.60"/>
    </edge>
    <edge id=":J4_1" function="internal">
        <lane id=":J4_1_0" index="0" speed="13.89" length="14.40" shape="398.40,7.20 398.40,-7.20"/>
    </edge>
    <edge id=":J4_2" function="internal">
        <lane id=":J4_2_0" index="0" speed="8.00" length="4.07" shape="398.40,7.20 398.95,3.35 399.04,3.20"/>
    </edge>
    <edge id=":J4_12" function="internal">
        <lane id=":J4_12_0" index="0" speed="8.00" length="10.13" shape="399.04,3.20 400.60,0.60 403.35,-1.05 407.20,-1.60"/>
    </edge>
    <edge id=":J4_3" function="internal">
        <lane id=":J4_3_0" index="0" speed="6.51" length="9.03" shape="407.20,1.60 404.75,1.95 403.00,3.00 401.95,4.75 401.60,7.20"/>
    </edge>
    <edge id=":J4_4" function="internal">
        <lane id=":J4_4_0" index="0" speed="13.89" length="14.40" shape="407.20,1.60 392.80,1.60"/>
    </edge>
    <edge id=":J4_5" function="internal">
        <lane id=":J4_5_0" index="0" speed="8.00" length="4.07" shape="407.20,1.60 403.35,1.05 403.20,0.96"/>
    </edge>
    <edge id=":J4_13" function="internal">
        <lane id=":J4_13_0" index="0" speed="8.00" length="10.13" shape="403.20,0.96 400.60,-0.60 398.95,-3.35 398.40,-7.20"/>
    </edge>
    <edge id=":J4_6" function="internal">
        <lane id=":J4_6_0" index="0" speed="6.51" length="9.03" shape="401.60,-7.20 401.95,-4.75 403.00,-3.00 404.75,-1.95 407.20,-1.60"/>
    </edge>
    <edge id=":J4_7" function="internal">
        <lane id=":J4_7_0" index="0" speed="13.89" length="14.40" shape="401.60,-7.20 401.60,7.20"/>
    </edge>
    <edge id=":J4_8" function="internal">
        <lane id=":J4_8_0" index="0" speed="8.00" length="4.07" shape="401.60,-7.20 401.05,-3.35 400.96,-3.20"/>
    </edge>
    <edge id=":J4_14" function="internal">
        <lane id=":J4_14_0" index="0" speed="8.00" length="10.13" shape="400.96,-3.20 399.40,-0.60 396.65,1.05 392.80,1.60"/>
    </edge>
    <edge id=":J4_9" function="internal">
        <lane id=":J4_9_0" index="0" speed="6.51" length="9.03" shape="392.80,-1.60 395.25,-1.95 397.00,-3.00 398.05,-4.75 398.40,-7.20"/>
    </edge>
    <edge id=":J4_10" function="internal">
        <lane id=":J4_10_0" index="0" speed="13.89" length="14.40" shape="392.80,-1.60 407.20,-1.60"/>
    </edge>
    <edge id=":J4_11" function="internal">
        <lane id=":J4_11_0" index="0" speed="8.00" length="4.07" shape="392.80,-1.60 396.65,-1.05 396.80,-0.96"/>
    </edge>
    <edge id=":J4_15" function="internal">
        <lane id=":J4_15_0" index="0" speed="8.00" length="10.13" shape="396.80,-0.96 399.40,0.60 401.05,3.35 401.60,7.20"/>
    </edge>
    <edge id=":J6_0" function="internal">
        <lane id=":J6_0_0" index="0" speed="6.51" length="9.03" shape="-101.60,7.20 -101.95,4.75 -103.00,3.00 -104.75,1.95 -107.20,1.60"/>
    </edge>
    <edge id=":J6_1" function="internal">
        <lane id=":J6_1_0" index="0" speed="13.89" length="14.40" shape="-101.60,7.20 -101.60,-7.20"/>
    </edge>
    <edge id=":J6_2" function="internal">
        <lane id=":J6_2_0" index="0" speed="8.00" length="4.07" shape="-101.60,7.20 -101.05,3.35 -100.96,3.20"/>
    </edge>
    <edge id=":J6_12" function="internal">
        <lane id=":J6_12_0" index="0" speed="8.00" length="10.13" shape="-100.96,3.20 -99.40,0.60 -96.65,-1.05 -92.80,-1.60"/>
    </edge>
    <edge id=":J6_3" function="internal">
        <lane id=":J6_3_0" index="0" speed="6.51" length="9.03" shape="-92.80,1.60 -95.25,1.95 -97.00,3.00 -98.05,4.75 -98.40,7.20"/>
    </edge>
    <edge id=":J6_4" function="internal">
        <lane id=":J6_4_0" index="0" speed="13.89" length="14.40" shape="-92.80,1.60 -107.20,1.60"/>
    </edge>
    <edge id=":J6_5" function="internal">
        <lane id=":J6_5_0" index="0" speed="8.00" length="4.07" shape="-92.80,1.60 -96.65,1.05 -96.80,0.96"/>
    </edge>
    <edge id=":J6_13" function="internal">
        <lane id=":J6_13_0" index="0" speed="8.00" length="10.13" shape="-96.80,0.96 -99.40,-0.60 -101.05,-3.35 -101.60,-7.20"/>
    </edge>
    <edge id=":J6_6" function="internal">
        <lane id=":J6_6_0" index="0" speed="6.51" length="9.03" shape="-98.40,-7.20 -98.05,-4.75 -97.00,-3.00 -95.25,-1.95 -92.80,-1.60"/>
    </edge>
    <edge id=":J6_7" function="internal">
        <lane id=":J6_7_0" index="0" speed="13.89" length="14.40" shape="-98.40,-7.20 -98.40,7.20"/>
    </edge>
    <edge id=":J6_8" function="internal">
        <lane id=":J6_8_0" index="0" speed="8.00" length="4.07" shape="-98.40,-7.20 -98.95,-3.35 -99.04,-3.20"/>
    </edge>
    <edge id=":J6_14" function="internal">
        <lane id=":J6_14_0" index="0" speed="8.00" length="10.13" shape="-99.04,-3.20 -100.60,-0.60 -103.35,1.05 -107.20,1.60"/>
    </edge>
    <edge id=":J6_9" function="internal">
        <lane id=":J6_9_0" index="0" speed="6.51" length="9.03" shape="-107.20,-1.60 -104.75,-1.95 -103.00,-3.00 -101.95,-4.75 -101.60,-7.20"/>
    </edge>
    <edge id=":J6_10" function="internal">
        <lane id=":J6_10_0" index="0" speed="13.89" length="14.40" shape="-107.20,-1.60 -92.80,-1.60"/>
    </edge>
    <edge id=":J6_11" function="internal">
        <lane id=":J6_11_0" index="0" speed="8.00" length="4.07" shape="-107.20,-1.60 -103.35,-1.05 -103.20,-0.96"/>
    </edge>
    <edge id=":J6_15" function="internal">
        <lane id=":J6_15_0" index="0" speed="8.00" length="10.13" shape="-103.20,-0.96 -100.60,0.60 -98.95,3.35 -98.40,7.20"/>
    </edge>

    <edge id="-E0" from="J1" to="J0" priority="-1">
        <lane id="-E0_0" index="0" speed="13.89" length="492.80" shape="407.20,498.40 900.00,498.40"/>
    </edge>
    <edge id="-E1" from="J2" to="J1" priority="-1">
        <lane id="-E1_0" index="0" speed="13.89" length="485.60" shape="-92.80,498.40 392.80,498.40"/>
    </edge>
    <edge id="-E10" from="J10" to="J6" priority="-1">
        <lane id="-E10_0" index="0" speed="13.89" length="492.80" shape="-600.00,-1.60 -107.20,-1.60"/>
    </edge>
    <edge id="-E11" from="J11" to="J6" priority="-1">
        <lane id="-E11_0" index="0" speed="13.89" length="492.80" shape="-98.40,-500.00 -98.40,-7.20"/>
    </edge>
    <edge id="-E2" from="J3" to="J2" priority="-1">
        <lane id="-E2_0" index="0" speed="13.89" length="492.80" shape="-600.00,498.40 -107.20,498.40"/>
    </edge>
    <edge id="-E3" from="J4" to="J1" priority="-1">
        <lane id="-E3_0" index="0" speed="13.89" length="485.60" shape="401.60,7.20 401.60,492.80"/>
    </edge>
    <edge id="-E4" from="J5" to="J1" priority="-1">
        <lane id="-E4_0" index="0" speed="13.89" length="492.80" shape="398.40,1000.00 398.40,507.20"/>
    </edge>
    <edge id="-E5" from="J6" to="J2" priority="-1">
        <lane id="-E5_0" index="0" speed="13.89" length="485.60" shape="-98.40,7.20 -98.40,492.80"/>
    </edge>
    <edge id="-E6" from="J7" to="J2" priority="-1" shape="-99.90,1000.10 -100.00,500.00">
        <lane id="-E6_0" index="0" speed="13.89" length="492.80" shape="-101.50,1000.00 -101.60,507.20"/>
    </edge>
    <edge id="-E7" from="J4" to="J6" priority="-1">
        <lane id="-E7_0" index="0" speed="13.89" length="485.60" shape="392.80,1.60 -92.80,1.60"/>
    </edge>
    <edge id="-E8" from="J8" to="J4" priority="-1" shape="900.10,0.10 400.00,0.00">
        <lane id="-E8_0" index="0" speed="13.89" length="492.80" shape="900.00,1.70 407.20,1.60"/>
    </edge>
    <edge id="-E9" from="J9" to="J4" priority="-1">
        <lane id="-E9_0" index="0" speed="13.89" length="492.80" shape="401.60,-500.00 401.60,-7.20"/>
    </edge>
    <edge id="E0" from="J0" to="J1" priority="-1">
        <lane id="E0_0" index="0" speed="13.89" length="492.80" shape="900.00,501.60 407.20,501.60"/>
    </edge>
    <edge id="E1" from="J1" to="J2" priority="-1">
        <lane id="E1_0" index="0" speed="13.89" length="485.60" shape="392.80,501.60 -92.80,501.60"/>
    </edge>
    <edge id="E10" from="J6" to="J10" priority="-1">
        <lane id="E10_0" index="0" speed="13.89" length="492.80" shape="-107.20,1.60 -600.00,1.60"/>
    </edge>
    <edge id="E11" from="J6" to="J11" priority="-1">
        <lane id="E11_0" index="0" speed="13.89" length="492.80" shape="-101.60,-7.20 -101.60,-500.00"/>
    </edge>
    <edge id="E2" from="J2" to="J3" priority="-1">
        <lane id="E2_0" index="0" speed="13.89" length="492.80" shape="-107.20,501.60 -600.00,501.60"/>
    </edge>
    <edge id="E3" from="J1" to="J4" priority="-1">
        <lane id="E3_0" index="0" speed="13.89" length="485.60" shape="398.40,492.80 398.40,7.20"/>
    </edge>
    <edge id="E4" from="J1" to="J5" priority="-1">
        <lane id="E4_0" index="0" speed="13.89" length="492.80" shape="401.60,507.20 401.60,1000.00"/>
    </edge>
    <edge id="E5" from="J2" to="J6" priority="-1">
        <lane id="E5_0" index="0" speed="13.89" length="485.60" shape="-101.60,492.80 -101.60,7.20"/>
    </edge>
    <edge id="E6" from="J2" to="J7" priority="-1" shape="-100.00,500.00 -99.90,1000.10">
        <lane id="E6_0" index="0" speed="13.89" length="492.80" shape="-98.40,507.20 -98.30,1000.00"/>
    </edge>
    <edge id="E7" from="J6" to="J4" priority="-1">
        <lane id="E7_0" index="0" speed="13.89" length="485.60" shape="-92.80,-1.60 392.80,-1.60"/>
    </edge>
    <edge id="E8" from="J4" to="J8" priority="-1" shape="400.00,0.00 900.10,0.10">
        <lane id="E8_0" index="0" speed="13.89" length="492.80" shape="407.20,-1.60 900.00,-1.50"/>
    </edge>
    <edge id="E9" from="J4" to="J9" priority="-1">
        <lane id="E9_0" index="0" speed="13.89" length="492.80" shape="398.40,-7.20 398.40,-500.00"/>
    </edge>

    <tlLogic id="J1" type="static" programID="0" offset="0">
        <phase duration="42" state="GGgrrrGGgrrr"/>
        <phase duration="3"  state="yyyrrryyyrrr"/>
        <phase duration="42" state="rrrGGgrrrGGg"/>
        <phase duration="3"  state="rrryyyrrryyy"/>
    </tlLogic>
    <tlLogic id="J2" type="static" programID="0" offset="0">
        <phase duration="42" state="rrrGGgrrrGGg"/>
        <phase duration="3"  state="rrryyyrrryyy"/>
        <phase duration="42" state="GGgrrrGGgrrr"/>
        <phase duration="3"  state="yyyrrryyyrrr"/>
    </tlLogic>
    <tlLogic id="J4" type="static" programID="0" offset="0">
        <phase duration="42" state="GGgrrrGGgrrr"/>
        <phase duration="3"  state="yyyrrryyyrrr"/>
        <phase duration="42" state="rrrGGgrrrGGg"/>
        <phase duration="3"  state="rrryyyrrryyy"/>
    </tlLogic>
    <tlLogic id="J6" type="static" programID="0" offset="0">
        <phase duration="42" state="GGgrrrGGgrrr"/>
        <phase duration="3"  state="yyyrrryyyrrr"/>
        <phase duration="42" state="rrrGGgrrrGGg"/>
        <phase duration="3"  state="rrryyyrrryyy"/>
    </tlLogic>

    <junction id="J0" type="dead_end" x="900.00" y="500.00" incLanes="-E0_0" intLanes="" shape="900.00,500.00 900.00,496.80 900.00,500.00"/>
    <junction id="J1" type="traffic_light" x="400.00" y="500.00" incLanes="-E4_0 E0_0 -E3_0 -E1_0" intLanes=":J1_0_0 :J1_1_0 :J1_12_0 :J1_3_0 :J1_4_0 :J1_13_0 :J1_6_0 :J1_7_0 :J1_14_0 :J1_9_0 :J1_10_0 :J1_15_0" shape="396.80,507.20 403.20,507.20 403.64,504.98 404.20,504.20 404.98,503.64 405.98,503.31 407.20,503.20 407.20,496.80 404.98,496.36 404.20,495.80 403.64,495.02 403.31,494.02 403.20,492.80 396.80,492.80 396.36,495.02 395.80,495.80 395.02,496.36 394.02,496.69 392.80,496.80 392.80,503.20 395.02,503.64 395.80,504.20 396.36,504.98 396.69,505.98">
        <request index="0"  response="000000000000" foes="000100010000" cont="0"/>
        <request index="1"  response="100000100000" foes="111100110000" cont="0"/>
        <request index="2"  response="100011100000" foes="110111110000" cont="1"/>
        <request index="3"  response="000010000000" foes="100010000000" cont="0"/>
        <request index="4"  response="000110000111" foes="100110000111" cont="0"/>
        <request index="5"  response="011110000110" foes="111110000110" cont="1"/>
        <request index="6"  response="000000000000" foes="010000000100" cont="0"/>
        <request index="7"  response="100000100000" foes="110000111100" cont="0"/>
        <request index="8"  response="100000100111" foes="110000110111" cont="1"/>
        <request index="9"  response="000000000010" foes="000000100010" cont="0"/>
        <request index="10" response="000111000110" foes="000111100110" cont="0"/>
        <request index="11" response="000110111110" foes="000110111110" cont="1"/>
    </junction>
    <junction id="J10" type="dead_end" x="-600.00" y="0.00" incLanes="E10_0" intLanes="" shape="-600.00,0.00 -600.00,3.20 -600.00,0.00"/>
    <junction id="J11" type="dead_end" x="-100.00" y="-500.00" incLanes="E11_0" intLanes="" shape="-100.00,-500.00 -103.20,-500.00 -100.00,-500.00"/>
    <junction id="J2" type="traffic_light" x="-100.00" y="500.00" incLanes="-E6_0 E1_0 -E5_0 -E2_0" intLanes=":J2_0_0 :J2_1_0 :J2_12_0 :J2_3_0 :J2_4_0 :J2_13_0 :J2_6_0 :J2_7_0 :J2_14_0 :J2_9_0 :J2_10_0 :J2_15_0" shape="-103.20,507.20 -96.80,507.20 -96.35,504.98 -95.80,504.20 -95.02,503.64 -94.02,503.31 -92.80,503.20 -92.80,496.80 -95.02,496.36 -95.80,495.80 -96.36,495.02 -96.69,494.02 -96.80,492.80 -103.20,492.80 -103.64,495.02 -104.20,495.80 -104.98,496.36 -105.98,496.69 -107.20,496.80 -107.20,503.20 -104.98,503.64 -104.20,504.20 -103.64,504.98 -103.31,505.98">
        <request index="0"  response="000000010000" foes="000100010000" cont="0"/>
        <request index="1"  response="111000110000" foes="111100110000" cont="0"/>
        <request index="2"  response="110011110000" foes="110111110000" cont="1"/>
        <request index="3"  response="000000000000" foes="100010000000" cont="0"/>
        <request index="4"  response="000100000100" foes="100110000111" cont="0"/>
        <request index="5"  response="011100000100" foes="111110000110" cont="1"/>
        <request index="6"  response="010000000000" foes="010000000100" cont="0"/>
        <request index="7"  response="110000111000" foes="110000111100" cont="0"/>
        <request index="8"  response="110000110111" foes="110000110111" cont="1"/>
        <request index="9"  response="000000000000" foes="000000100010" cont="0"/>
        <request index="10" response="000100000100" foes="000111100110" cont="0"/>
        <request index="11" response="000100111100" foes="000110111110" cont="1"/>
    </junction>
    <junction id="J3" type="dead_end" x="-600.00" y="500.00" incLanes="E2_0" intLanes="" shape="-600.00,500.00 -600.00,503.20 -600.00,500.00"/>
    <junction id="J4" type="traffic_light" x="400.00" y="0.00" incLanes="E3_0 -E8_0 -E9_0 E7_0" intLanes=":J4_0_0 :J4_1_0 :J4_12_0 :J4_3_0 :J4_4_0 :J4_13_0 :J4_6_0 :J4_7_0 :J4_14_0 :J4_9_0 :J4_10_0 :J4_15_0" shape="396.80,7.20 403.20,7.20 403.64,4.98 404.20,4.20 404.98,3.65 405.98,3.31 407.20,3.20 407.20,-3.20 404.98,-3.64 404.20,-4.20 403.64,-4.98 403.31,-5.98 403.20,-7.20 396.80,-7.20 396.36,-4.98 395.80,-4.20 395.02,-3.64 394.02,-3.31 392.80,-3.20 392.80,3.20 395.02,3.64 395.80,4.20 396.36,4.98 396.69,5.98">
        <request index="0"  response="000000000000" foes="000100010000" cont="0"/>
        <request index="1"  response="100000100000" foes="111100110000" cont="0"/>
        <request index="2"  response="100011100000" foes="110111110000" cont="1"/>
        <request index="3"  response="000010000000" foes="100010000000" cont="0"/>
        <request index="4"  response="000110000111" foes="100110000111" cont="0"/>
        <request index="5"  response="111110000110" foes="111110000110" cont="1"/>
        <request index="6"  response="000000000000" foes="010000000100" cont="0"/>
        <request index="7"  response="100000100000" foes="110000111100" cont="0"/>
        <request index="8"  response="100000100111" foes="110000110111" cont="1"/>
        <request index="9"  response="000000000010" foes="000000100010" cont="0"/>
        <request index="10" response="000111000110" foes="000111100110" cont="0"/>
        <request index="11" response="000110011110" foes="000110111110" cont="1"/>
    </junction>
    <junction id="J5" type="dead_end" x="400.00" y="1000.00" incLanes="E4_0" intLanes="" shape="400.00,1000.00 403.20,1000.00 400.00,1000.00"/>
    <junction id="J6" type="traffic_light" x="-100.00" y="0.00" incLanes="E5_0 -E7_0 -E11_0 -E10_0" intLanes=":J6_0_0 :J6_1_0 :J6_12_0 :J6_3_0 :J6_4_0 :J6_13_0 :J6_6_0 :J6_7_0 :J6_14_0 :J6_9_0 :J6_10_0 :J6_15_0" shape="-103.20,7.20 -96.80,7.20 -96.36,4.98 -95.80,4.20 -95.02,3.64 -94.02,3.31 -92.80,3.20 -92.80,-3.20 -95.02,-3.64 -95.80,-4.20 -96.36,-4.98 -96.69,-5.98 -96.80,-7.20 -103.20,-7.20 -103.64,-4.98 -104.20,-4.20 -104.98,-3.64 -105.98,-3.31 -107.20,-3.20 -107.20,3.20 -104.98,3.64 -104.20,4.20 -103.64,4.98 -103.31,5.98">
        <request index="0"  response="000000000000" foes="000100010000" cont="0"/>
        <request index="1"  response="100000100000" foes="111100110000" cont="0"/>
        <request index="2"  response="100011100000" foes="110111110000" cont="1"/>
        <request index="3"  response="000010000000" foes="100010000000" cont="0"/>
        <request index="4"  response="000110000111" foes="100110000111" cont="0"/>
        <request index="5"  response="011110000110" foes="111110000110" cont="1"/>
        <request index="6"  response="000000000000" foes="010000000100" cont="0"/>
        <request index="7"  response="100000100000" foes="110000111100" cont="0"/>
        <request index="8"  response="100000100111" foes="110000110111" cont="1"/>
        <request index="9"  response="000000000010" foes="000000100010" cont="0"/>
        <request index="10" response="000111000110" foes="000111100110" cont="0"/>
        <request index="11" response="000110111110" foes="000110111110" cont="1"/>
    </junction>
    <junction id="J7" type="dead_end" x="-100.00" y="1000.00" incLanes="E6_0" intLanes="" shape="-99.90,1000.00 -96.70,1000.00 -99.90,1000.00"/>
    <junction id="J8" type="dead_end" x="900.00" y="0.00" incLanes="E8_0" intLanes="" shape="900.00,0.10 900.00,-3.10 900.00,0.10"/>
    <junction id="J9" type="dead_end" x="400.00" y="-500.00" incLanes="E9_0" intLanes="" shape="400.00,-500.00 396.80,-500.00 400.00,-500.00"/>

    <junction id=":J1_12_0" type="internal" x="399.04" y="503.20" incLanes=":J1_2_0 -E3_0" intLanes=":J1_4_0 :J1_5_0 :J1_6_0 :J1_7_0 :J1_10_0 :J1_11_0"/>
    <junction id=":J1_13_0" type="internal" x="403.20" y="500.96" incLanes=":J1_5_0 -E1_0" intLanes=":J1_1_0 :J1_2_0 :J1_7_0 :J1_8_0 :J1_9_0 :J1_10_0"/>
    <junction id=":J1_14_0" type="internal" x="400.96" y="496.80" incLanes=":J1_8_0 -E4_0" intLanes=":J1_0_0 :J1_1_0 :J1_4_0 :J1_5_0 :J1_10_0 :J1_11_0"/>
    <junction id=":J1_15_0" type="internal" x="396.80" y="499.04" incLanes=":J1_11_0 E0_0" intLanes=":J1_1_0 :J1_2_0 :J1_3_0 :J1_4_0 :J1_7_0 :J1_8_0"/>
    <junction id=":J2_12_0" type="internal" x="-100.96" y="503.20" incLanes=":J2_2_0 -E5_0" intLanes=":J2_4_0 :J2_5_0 :J2_6_0 :J2_7_0 :J2_10_0 :J2_11_0"/>
    <junction id=":J2_13_0" type="internal" x="-96.80" y="500.96" incLanes=":J2_5_0 -E2_0" intLanes=":J2_1_0 :J2_2_0 :J2_7_0 :J2_8_0 :J2_9_0 :J2_10_0"/>
    <junction id=":J2_14_0" type="internal" x="-99.04" y="496.80" incLanes=":J2_8_0 -E6_0" intLanes=":J2_0_0 :J2_1_0 :J2_4_0 :J2_5_0 :J2_10_0 :J2_11_0"/>
    <junction id=":J2_15_0" type="internal" x="-103.20" y="499.04" incLanes=":J2_11_0 E1_0" intLanes=":J2_1_0 :J2_2_0 :J2_3_0 :J2_4_0 :J2_7_0 :J2_8_0"/>
    <junction id=":J4_12_0" type="internal" x="399.04" y="3.20" incLanes=":J4_2_0 -E9_0" intLanes=":J4_4_0 :J4_5_0 :J4_6_0 :J4_7_0 :J4_10_0 :J4_11_0"/>
    <junction id=":J4_13_0" type="internal" x="403.20" y="0.96" incLanes=":J4_5_0 E7_0" intLanes=":J4_1_0 :J4_2_0 :J4_7_0 :J4_8_0 :J4_9_0 :J4_10_0"/>
    <junction id=":J4_14_0" type="internal" x="400.96" y="-3.20" incLanes=":J4_8_0 E3_0" intLanes=":J4_0_0 :J4_1_0 :J4_4_0 :J4_5_0 :J4_10_0 :J4_11_0"/>
    <junction id=":J4_15_0" type="internal" x="396.80" y="-0.96" incLanes=":J4_11_0 -E8_0" intLanes=":J4_1_0 :J4_2_0 :J4_3_0 :J4_4_0 :J4_7_0 :J4_8_0"/>
    <junction id=":J6_12_0" type="internal" x="-100.96" y="3.20" incLanes=":J6_2_0 -E11_0" intLanes=":J6_4_0 :J6_5_0 :J6_6_0 :J6_7_0 :J6_10_0 :J6_11_0"/>
    <junction id=":J6_13_0" type="internal" x="-96.80" y="0.96" incLanes=":J6_5_0 -E10_0" intLanes=":J6_1_0 :J6_2_0 :J6_7_0 :J6_8_0 :J6_9_0 :J6_10_0"/>
    <junction id=":J6_14_0" type="internal" x="-99.04" y="-3.20" incLanes=":J6_8_0 E5_0" intLanes=":J6_0_0 :J6_1_0 :J6_4_0 :J6_5_0 :J6_10_0 :J6_11_0"/>
    <junction id=":J6_15_0" type="internal" x="-103.20" y="-0.96" incLanes=":J6_11_0 -E7_0" intLanes=":J6_1_0 :J6_2_0 :J6_3_0 :J6_4_0 :J6_7_0 :J6_8_0"/>

    <connection from="-E1" to="E3" fromLane="0" toLane="0" via=":J1_9_0" tl="J1" linkIndex="9" dir="r" state="o"/>
    <connection from="-E1" to="-E0" fromLane="0" toLane="0" via=":J1_10_0" tl="J1" linkIndex="10" dir="s" state="o"/>
    <connection from="-E1" to="E4" fromLane="0" toLane="0" via=":J1_11_0" tl="J1" linkIndex="11" dir="l" state="o"/>
    <connection from="-E10" to="E11" fromLane="0" toLane="0" via=":J6_9_0" tl="J6" linkIndex="9" dir="r" state="o"/>
    <connection from="-E10" to="E7" fromLane="0" toLane="0" via=":J6_10_0" tl="J6" linkIndex="10" dir="s" state="o"/>
    <connection from="-E10" to="-E5" fromLane="0" toLane="0" via=":J6_11_0" tl="J6" linkIndex="11" dir="l" state="o"/>
    <connection from="-E11" to="E7" fromLane="0" toLane="0" via=":J6_6_0" tl="J6" linkIndex="6" dir="r" state="O"/>
    <connection from="-E11" to="-E5" fromLane="0" toLane="0" via=":J6_7_0" tl="J6" linkIndex="7" dir="s" state="O"/>
    <connection from="-E11" to="E10" fromLane="0" toLane="0" via=":J6_8_0" tl="J6" linkIndex="8" dir="l" state="o"/>
    <connection from="-E2" to="E5" fromLane="0" toLane="0" via=":J2_9_0" tl="J2" linkIndex="9" dir="r" state="O"/>
    <connection from="-E2" to="-E1" fromLane="0" toLane="0" via=":J2_10_0" tl="J2" linkIndex="10" dir="s" state="O"/>
    <connection from="-E2" to="E6" fromLane="0" toLane="0" via=":J2_11_0" tl="J2" linkIndex="11" dir="l" state="o"/>
    <connection from="-E3" to="-E0" fromLane="0" toLane="0" via=":J1_6_0" tl="J1" linkIndex="6" dir="r" state="O"/>
    <connection from="-E3" to="E4" fromLane="0" toLane="0" via=":J1_7_0" tl="J1" linkIndex="7" dir="s" state="O"/>
    <connection from="-E3" to="E1" fromLane="0" toLane="0" via=":J1_8_0" tl="J1" linkIndex="8" dir="l" state="o"/>
    <connection from="-E4" to="E1" fromLane="0" toLane="0" via=":J1_0_0" tl="J1" linkIndex="0" dir="r" state="O"/>
    <connection from="-E4" to="E3" fromLane="0" toLane="0" via=":J1_1_0" tl="J1" linkIndex="1" dir="s" state="O"/>
    <connection from="-E4" to="-E0" fromLane="0" toLane="0" via=":J1_2_0" tl="J1" linkIndex="2" dir="l" state="o"/>