<?xml version="1.0" encoding="UTF-8"?>

<!-- generated on 2026-01-14 13:57:46.391535 by Eclipse SUMO randomTrips.py v1_25_0+0000-ac6c5a6752d
<configuration>
    <net-file value="final_map.net.xml"/>
    <output-trip-file value="trips_high.xml"/>
    <period value="2.56"/>
</configuration>
-->

<!-- generated on 2026-01-14T13:57:46.253322+08:00 by Eclipse SUMO duarouter 1.25.0
<duarouterConfiguration xmlns:xsi="http://www.w3.org/2001/XMLSchema-instance" xsi:noNamespaceSchemaLocation="http://sumo.dlr.de/xsd/duarouterConfiguration.xsd">

    <input>
        <net-file value="final_map.net.xml"/>
        <route-files value="trips_high.xml"/>
    </input>

    <output>
        <output-file value="routes.rou.xml"/>
        <alternatives-output value="NUL"/>
    </output>

    <time>
        <begin value="0"/>
        <end value="3600.0"/>
    </time>

    <report>
        <no-warnings value="true"/>
        <ignore-errors value="true"/>
        <no-step-log value="true"/>
    </report>

</duarouterConfiguration>
-->

<routes xmlns:xsi="http://www.w3.org/2001/XMLSchema-instance" xsi:noNamespaceSchemaLocation="http://sumo.dlr.de/xsd/routes_file.xsd">
    <vehicle id="0" depart="0.00">
        <route edges="-E9 -E3 -E0"/>
    </vehicle>
    <vehicle id="1" depart="2.56">
        <route edges="E0 E4"/>
    </vehicle>
    <vehicle id="2" depart="5.12">
        <route edges="-E5 -E1 -E0"/>
    </vehicle>
    <vehicle id="3" depart="7.68">
        <route edges="-E2 -E1 E3 -E7 -E5 E2"/>
    </vehicle>
    <vehicle id="4" depart="10.24">
        <route edges="-E1 E3 -E7 -E5"/>
    </vehicle>
    <vehicle id="5" depart="12.80">
        <route edges="-E9 -E3 E1 E2"/>
    </vehicle>
    <vehicle id="6" depart="15.36">
        <route edges="-E2 -E1 E3"/>
    </vehicle>
    <vehicle id="7" depart="17.92">
        <route edges="E1 E5 E7 -E3 -E0"/>
    </vehicle>
    <vehicle id="8" depart="20.48">
        <route edges="E1 E5"/>
    </vehicle>
    <vehicle id="9" depart="23.04">
        <route edges="-E4 E1 E5 E7 -E3"/>
    </vehicle>
    <vehicle id="10" depart="25.60">
        <route edges="E7 -E3 E1"/>
    </vehicle>
    <vehicle id="11" depart="28.16">
        <route edges="-E10 -E5 -E1"/>
    </vehicle>
    <vehicle id="12" depart="30.72">
        <route edges="E3"/>
    </vehicle>
    <vehicle id="13" depart="33.28">
        <route edges="E1 E5"/>
    </vehicle>
    <vehicle id="14" depart="35.84">
        <route edges="-E7 -E5 -E1 E3 E9"/>
    </vehicle>
    <vehicle id="15" depart="38.40">
        <route edges="-E5 E2"/>
    </vehicle>
    <vehicle id="16" depart="40.96">
        <route edges="E3"/>
    </vehicle>
    <vehicle id="17" depart="43.52">
        <route edges="E3"/>
    </vehicle>
    <vehicle id="18" depart="46.08">
        <route edges="E0 E3 -E7 -E5 -E1 -E0"/>
    </vehicle>
    <vehicle id="19" depart="48.64">
        <route edges="-E2 -E1 E3 -E7"/>
    </vehicle>
    <vehicle id="20" depart="51.20">
        <route edges="-E10 -E5"/>
    </vehicle>
    <vehicle id="21" depart="53.76">
        <route edges="-E10 -E5 -E1 E3 -E7"/>
    </vehicle>
    <vehicle id="22" depart="56.32">
        <route edges="-E9 -E3 E1"/>
    </vehicle>
    <vehicle id="23" depart="58.88">
        <route edges="-E4 E3 -E7 -E5"/>
    </vehicle>
    <vehicle id="24" depart="61.44">
        <route edges="-E3 E1 E5 E7 E8"/>
    </vehicle>
    <vehicle id="25" depart="64.00">
        <route edges="-E9 -E7 -E5 -E1 E3"/>
    </vehicle>
    <vehicle id="26" depart="66.56">
        <route edges="-E11 E7 -E3 E1 E5"/>
    </vehicle>
    <vehicle id="27" depart="69.12">
        <route edges="-E11 E10"/>
    </vehicle>
    <vehicle id="28" depart="71.68">
        <route edges="E7 -E3 E4"/>
    </vehicle>
    <vehicle id="29" depart="74.24">
        <route edges="-E7 -E5 -E1 E4"/>
    </vehicle>
    <vehicle id="30" depart="76.80">
        <route edges="E3 -E7 -E5 E6"/>
    </vehicle>
    <vehicle id="31" depart="79.36">
        <route edges="-E2 -E1 -E0"/>
    </vehicle>
    <vehicle id="32" depart="81.92">
        <route edges="-E4 E3 -E7"/>
    </vehicle>
    <vehicle id="33" depart="84.48">
        <route edges="-E2 -E1 E3 E9"/>
    </vehicle>
    <vehicle id="34" depart="87.04">
        <route edges="E5 E7 -E3 E1"/>
    </vehicle>
    <vehicle id="35" depart="89.60">
        <route edges="-E9 -E7 E10"/>
    </vehicle>
    <vehicle id="36" depart="92.16">
        <route edges="E5 E11"/>
    </vehicle>
    <vehicle id="37" depart="94.72">
        <route edges="-E7"/>
    </vehicle>
    <vehicle id="38" depart="97.28">
        <route edges="-E8 -E7 -E5 -E1 E3 E8"/>
    </vehicle>
    <vehicle id="39" depart="99.84">
        <route edges="-E5"/>
    </vehicle>
    <vehicle id="40" depart="102.40">
        <route edges="E7 -E3 E1 E2"/>
    </vehicle>
    <vehicle id="41" depart="104.96">
        <route edges="-E10 -E5 -E1 -E0"/>
    </vehicle>
    <vehicle id="42" depart="107.52">
        <route edges="-E10 E7 -E3 E4"/>
    </vehicle>
    <vehicle id="43" depart="110.08">
        <route edges="E1 E5 E10"/>
    </vehicle>
    <vehicle id="44" depart="112.64">
        <route edges="-E10 -E5 -E1 E3 -E7 E10"/>
    </vehicle>
    <vehicle id="45" depart="115.20">
        <route edges="E7 -E3 E1 E2"/>
    </vehicle>
    <vehicle id="46" depart="117.76">
        <route edges="E7"/>
    </vehicle>
    <vehicle id="47" depart="120.32">
        <route edges="-E9 -E3 E1 E2"/>
    </vehicle>
    <vehicle id="48" depart="122.88">
        <route edges="-E3 E4"/>
    </vehicle>
    <vehicle id="49" depart="125.44">
        <route edges="-E10 -E5 -E1 E3 -E7 E10"/>
    </vehicle>
    <vehicle id="50" depart="128.00">
        <route edges="-E6 E5 E7 E9"/>
    </vehicle>
    <vehicle id="51" depart="130.56">
        <route edges="E5 E7"/>
    </vehicle>
    <vehicle id="52" depart="133.12">
        <route edges="-E3 E4"/>
    </vehicle>
    <vehicle id="53" depart="135.68">
        <route edges="-E8 -E3"/>
    </vehicle>
    <vehicle id="54" depart="138.24">
        <route edges="E1 E2"/>
    </vehicle>
    <vehicle id="55" depart="140.80">
        <route edges="E1 E2"/>
    </vehicle>
    <vehicle id="56" depart="143.36">
        <route edges="-E1 E3 E8"/>
    </vehicle>
    <vehicle id="57" depart="145.92">
        <route edges="E5 E7"/>
    </vehicle>
    <vehicle id="58" depart="148.48">
        <route edges="-E3 -E0"/>
    </vehicle>
    <vehicle id="59" depart="151.04">
        <route edges="E5 E7 E9"/>
    </vehicle>
    <vehicle id="60" depart="153.60">
        <route edges="-E10 E11"/>
    </vehicle>
    <vehicle id="61" depart="156.16">
        <route edges="-E10 -E5 E6"/>
    </vehicle>
    <vehicle id="62" depart="158.72">
        <route edges="E1 E5 E7 -E3"/>
    </vehicle>
    <vehicle id="63" depart="161.28">
        <route edges="-E6 E2"/>
    </vehicle>
    <vehicle id="64" depart="163.84">
        <route edges="-E3 E1 E5 E7"/>
    </vehicle>
    <vehicle id="65" depart="166.40">
        <route edges="-E5"/>
    </vehicle>
    <vehicle id="66" depart="168.96">
        <route edges="-E2 -E1 E3 -E7"/>
    </vehicle>
    <vehicle id="67" depart="171.52">
        <route edges="E7 -E3 E4"/>
    </vehicle>
    <vehicle id="68" depart="174.08">
        <route edges="-E6 E2"/>
    </vehicle>
    <vehicle id="69" depart="176.64">
        <route edges="-E10 -E5"/>
    </vehicle>
    <vehicle id="70" depart="179.20">
        <route edges="-E4 E3"/>
    </vehicle>
    <vehicle id="71" depart="181.76">
        <route edges="-E2 -E1 E3 -E7 -E5"/>
    </vehicle>
    <vehicle id="72" depart="184.32">
        <route edges="-E10 E7 -E3 E4"/>
    </vehicle>
    <vehicle id="73" depart="186.88">
        <route edges="-E2 E5 E7 E8"/>
    </vehicle>
    <vehicle id="74" depart="189.44">
        <route edges="E3 -E7 -E5 -E1"/>
    </vehicle>
    <vehicle id="75" depart="192.00">
        <route edges="-E2 -E1 E4"/>
    </vehicle>
    <vehicle id="76" depart="194.56">
        <route edges="-E2 E5 E7 -E3"/>
    </vehicle>
    <vehicle id="77" depart="197.12">
        <route edges="-E6 -E1 E3 -E7 -E5 E6"/>
    </vehicle>
    <vehicle id="78" depart="199.68">
        <route edges="-E10 -E5 -E1 E3 -E7 E10"/>
    </vehicle>
    <vehicle id="79" depart="202.24">
        <route edges="-E5 -E1 E3 -E7 E11"/>
    </vehicle>
    <vehicle id="80" depart="204.80">
        <route edges="E0 E4"/>
    </vehicle>
    <vehicle id="81" depart="207.36">
        <route edges="E3 -E7 -E5"/>
    </vehicle>
    <vehicle id="82" depart="209.92">
        <route edges="-E2 E5 E11"/>
    </vehicle>
    <vehicle id="83" depart="212.48">
        <route edges="-E5 -E1 E3 -E7"/>
    </vehicle>
    <vehicle id="84" depart="215.04">
        <route edges="-E2 E5 E7 E8"/>
    </vehicle>
    <vehicle id="85" depart="217.60">
        <route edges="-E6 E5 E7"/>
    </vehicle>
    <vehicle id="86" depart="220.16">
        <route edges="-E7 -E5 -E1 -E0"/>
    </vehicle>
    <vehicle id="87" depart="222.72">
        <route edges="E7"/>
    </vehicle>
    <vehicle id="88" depart="225.28">
        <route edges="E7 E8"/>
    </vehicle>
    <vehicle id="89" depart="227.84">
        <route edges="-E6 -E1 E3 -E7 -E5"/>
    </vehicle>
    <vehicle id="90" depart="230.40">
        <route edges="-E5 -E1 -E0"/>
    </vehicle>
    <vehicle id="91" depart="232.96">
        <route edges="-E5 -E1 E3 E9"/>
    </vehicle>
    <vehicle id="92" depart="235.52">
        <route edges="-E3 E1 E6"/>
    </vehicle>
    <vehicle id="93" depart="238.08">
        <route edges="-E6 E5 E10"/>
    </vehicle>
    <vehicle id="94" depart="240.64">
        <route edges="E7 E9"/>
    </vehicle>
    <vehicle id="95" depart="243.20">
        <route edges="-E11 -E5 -E1 E3 -E7"/>
    </vehicle>
    <vehicle id="96" depart="245.76">
        <route edges="-E1 E3"/>
    </vehicle>
    <vehicle id="97" depart="248.32">
        <route edges="-E11 E7 E9"/>
    </vehicle>
    <vehicle id="98" depart="250.88">
        <route edges="-E10 E7 -E3"/>
    </vehicle>
    <vehicle id="99" depart="253.44">
        <route edges="-E8 -E3 E4"/>
    </vehicle>
    <vehicle id="100" depart="256.00">
        <route edges="-E2 -E1"/>
    </vehicle>
    <vehicle id="101" depart="258.56">
        <route edges="-E8 -E7 -E5 -E1 E3"/>
    </vehicle>
    <vehicle id="102" depart="261.12">
        <route edges="-E5 -E1 E3"/>
    </vehicle>
    <vehicle id="103" depart="263.68">
        <route edges="-E7 -E5 -E1 E3 E8"/>
    </vehicle>
    <vehicle id="104" depart="266.24">
        <route edges="-E2 E5"/>
    </vehicle>
    <vehicle id="105" depart="268.80">
        <route edges="-E2 E5 E10"/>
    </vehicle>
    <vehicle id="106" depart="271.36">
        <route edges="-E9 -E7"/>
    </vehicle>
    <vehicle id="107" depart="273.92">
        <route edges="-E4 E1 E6"/>
    </vehicle>
    <vehicle id="108" depart="276.48">
        <route edges="-E10 E11"/>
    </vehicle>
    <vehicle id="109" depart="279.04">
        <route edges="E7 E9"/>
    </vehicle>
    <vehicle id="110" depart="281.60">
        <route edges="-E10 -E5"/>
    </vehicle>
    <vehicle id="111" depart="284.16">
        <route edges="-E3 E1 E5 E7 E8"/>
    </vehicle>
    <vehicle id="112" depart="286.72">
        <route edges="E5 E7 E8"/>
    </vehicle>
    <vehicle id="113" depart="289.28">
        <route edges="-E4 E1 E5 E7 -E3"/>
    </vehicle>
    <vehicle id="114" depart="291.84">
        <route edges="-E8 E9"/>
    </vehicle>
    <vehicle id="115" depart="294.40">
        <route edges="-E9 -E3 -E0"/>
    </vehicle>
    <vehicle id="116" depart="296.96">
        <route edges="E3 -E7"/>
    </vehicle>
    <vehicle id="117" depart="299.52">
        <route edges="-E9 -E7 -E5 -E1 E3 E9"/>
    </vehicle>
    <vehicle id="118" depart="302.08">
        <route edges="-E11 -E5 -E1"/>
    </vehicle>
    <vehicle id="119" depart="304.64">
        <route edges="-E10 -E5 E2"/>
    </vehicle>
    <vehicle id="120" depart="307.20">
        <route edges="E0 E3 -E7 -E5"/>
    </vehicle>
    <vehicle id="121" depart="309.76">
        <route edges="-E9 -E7"/>
    </vehicle>
    <vehicle id="122" depart="312.32">
        <route edges="-E6 E5 E7 E8"/>
    </vehicle>
    <vehicle id="123" depart="314.88">
        <route edges="E3 -E7 -E5 -E1"/>
    </vehicle>
    <vehicle id="124" depart="317.44">
        <route edges="-E5 -E1 E3 -E7"/>
    </vehicle>
    <vehicle id="125" depart="320.00">
        <route edges="-E1 E3 -E7 -E5 E6"/>
    </vehicle>
    <vehicle id="126" depart="322.56">
        <route edges="-E9 -E7"/>
    </vehicle>
    <vehicle id="127" depart="325.12">
        <route edges="E0 E1 E2"/>
    </vehicle>
    <vehicle id="128" depart="327.68">
        <route edges="-E5 -E1 -E0"/>
    </vehicle>
    <vehicle id="129" depart="330.24">
        <route edges="-E10 E7 E8"/>
    </vehicle>
    <vehicle id="130" depart="332.80">
        <route edges="E5 E7 -E3 E1 E2"/>
    </vehicle>
    <vehicle id="131" depart="335.36">
        <route edges="E3"/>
    </vehicle>
    <vehicle id="132" depart="337.92">
        <route edges="-E11 E7 -E3"/>
    </vehicle>
    <vehicle id="133" depart="340.48">
        <route edges="-E3 E1 E5 E7 E8"/>
    </vehicle>
    <vehicle id="134" depart="343.04">
        <route edges="E1 E5 E7"/>
    </vehicle>
    <vehicle id="135" depart="345.60">
        <route edges="-E2 -E1"/>
    </vehicle>
    <vehicle id="136" depart="348.16">
        <route edges="E1 E5 E7 E8"/>
    </vehicle>
    <vehicle id="137" depart="350.72">
        <route edges="-E5 -E1 E3"/>
    </vehicle>
    <vehicle id="138" depart="353.28">
        <route edges="-E11 E7 E8"/>
    </vehicle>
    <vehicle id="139" depart="355.84">
        <route edges="E3 E9"/>
    </vehicle>
    <vehicle id="140" depart="358.40">
        <route edges="E1 E5 E7 E8"/>
    </vehicle>
    <vehicle id="141" depart="360.96">
        <route edges="-E4 E3 E8"/>
    </vehicle>
    <vehicle id="142" depart="363.52">
        <route edges="E1 E5 E7"/>
    </vehicle>
    <vehicle id="143" depart="366.08">
        <route edges="-E2 E5 E7"/>
    </vehicle>
    <vehicle id="144" depart="368.64">
        <route edges="-E6 -E1 E3 -E7"/>
    </vehicle>
    <vehicle id="145" depart="371.20">
        <route edges="-E1 E3 -E7 -E5"/>
    </vehicle>
    <vehicle id="146" depart="373.76">
        <route edges="-E4 E1 E5 E7"/>
    </vehicle>
    <vehicle id="147" depart="376.32">
        <route edges="-E9 -E7 E10"/>
    </vehicle>
    <vehicle id="148" depart="378.88">
        <route edges="E7 -E3 E1 E2"/>
    </vehicle>
    <vehicle id="149" depart="381.44">
        <route edges="E7 -E3"/>
    </vehicle>
    <vehicle id="150" depart="384.00">
        <route edges="-E10 -E5 -E1 E3 -E7 E10"/>
    </vehicle>
    <vehicle id="151" depart="386.56">
        <route edges="E0 E1"/>
    </vehicle>
    <vehicle id="152" depart="389.12">
        <route edges="-E8 -E3 E1 E2"/>
    </vehicle>
    <vehicle id="153" depart="391.68">
        <route edges="-E5 -E1 E3"/>
    </vehicle>
    <vehicle id="154" depart="394.24">
        <route edges="-E3 E1 E5"/>
    </vehicle>
    <vehicle id="155" depart="396.80">
        <route edges="-E1 E3 E8"/>
    </vehicle>
    <vehicle id="156" depart="399.36">
        <route edges="E0 E4"/>
    </vehicle>
    <vehicle id="157" depart="401.92">
        <route edges="-E4 E3 -E7 -E5 -E1"/>
    </vehicle>
    <vehicle id="158" depart="404.48">
        <route edges="-E9 -E3 E1"/>
    </vehicle>
    <vehicle id="159" depart="407.04">
        <route edges="-E4 E1 E5 E7"/>
    </vehicle>
    <vehicle id="160" depart="409.60">
        <route edges="E0 E3 -E7"/>
    </vehicle>
    <vehicle id="161" depart="412.16">
        <route edges="-E3 E1 E5 E10"/>
    </vehicle>
    <vehicle id="162" depart="414.72">
        <route edges="-E5 -E1 E3 -E7"/>
    </vehicle>
    <vehicle id="163" depart="417.28">
        <route edges="-E11 E10"/>
    </vehicle>
    <vehicle id="164" depart="419.84">
        <route edges="E7 -E3 E4"/>
    </vehicle>
    <vehicle id="165" depart="422.40">
        <route edges="-E3 E1 E2"/>
    </vehicle>
    <vehicle id="166" depart="424.96">
        <route edges="-E1 E3 -E7"/>
    </vehicle>
    <vehicle id="167" depart="427.52">
        <route edges="-E5 -E1 E3"/>
    </vehicle>
    <vehicle id="168" depart="430.08">
        <route edges="-E9 -E7 E11"/>
    </vehicle>
    <vehicle id="169" depart="432.64">
        <route edges="-E6 -E1 E3 -E7 -E5"/>
    </vehicle>
    <vehicle id="170" depart="435.20">
        <route edges="-E6 E5 E7 E8"/>
    </vehicle>
    <vehicle id="171" depart="437.76">
        <route edges="E1 E5 E7 -E3"/>
    </vehicle>
    <vehicle id="172" depart="440.32">
        <route edges="-E10 -E5 E2"/>
    </vehicle>
    <vehicle id="173" depart="442.88">
        <route edges="-E9 -E3 E1"/>
    </vehicle>
    <vehicle id="174" depart="445.44">
        <route edges="E3 -E7 -E5 E6"/>
    </vehicle>
    <vehicle id="175" depart="448.00">
        <route edges="-E9 -E7 -E5"/>
    </vehicle>
    <vehicle id="176" depart="450.56">
        <route edges="-E2 -E1 -E0"/>
    </vehicle>
    <vehicle id="177" depart="453.12">
        <route edges="-E2 E5 E11"/>
    </vehicle>
    <vehicle id="178" depart="455.68">
        <route edges="E3 -E7 -E5 -E1"/>
    </vehicle>
    <vehicle id="179" depart="458.24">
        <route edges="-E5 -E1 E4"/>
    </vehicle>
    <vehicle id="180" depart="460.80">
        <route edges="-E2 E5"/>
    </vehicle>
    <vehicle id="181" depart="463.36">
        <route edges="-E6 -E1 E3 -E7 -E5"/>
    </vehicle>
    <vehicle id="182" depart="465.92">
        <route edges="-E9 -E3 -E0"/>
    </vehicle>
    <vehicle id="183" depart="468.48">
        <route edges="E1 E6"/>
    </vehicle>
    <vehicle id="184" depart="471.04">
        <route edges="-E10 -E5 -E1 E3 -E7 E10"/>
    </vehicle>
    <vehicle id="185" depart="473.60">
        <route edges="-E11 E7 E9"/>
    </vehicle>
    <vehicle id="186" depart="476.16">
        <route edges="-E7 -E5 -E1 -E0"/>
    </vehicle>
    <vehicle id="187" depart="478.72">
        <route edges="-E2 E5 E7"/>
    </vehicle>
    <vehicle id="188" depart="481.28">
        <route edges="-E6 -E1 E3 -E7 -E5 E6"/>
    </vehicle>
    <vehicle id="189" depart="483.84">
        <route edges="-E9 -E7 -E5 -E1 E3 E9"/>
    </vehicle>
    <vehicle id="190" depart="486.40">
        <route edges="-E8 E9"/>
    </vehicle>
    <vehicle id="191" depart="488.96">
        <route edges="E0 E1 E2"/>
    </vehicle>
    <vehicle id="192" depart="491.52">
        <route edges="E3 -E7 -E5 E2"/>
    </vehicle>
    <vehicle id="193" depart="494.08">
        <route edges="E5"/>
    </vehicle>
    <vehicle id="194" depart="496.64">
        <route edges="-E6 -E1 E3 -E7"/>
    </vehicle>
    <vehicle id="195" depart="499.20">
        <route edges="-E2 -E1 E4"/>
    </vehicle>
    <vehicle id="196" depart="501.76">
        <route edges="E1 E2"/>
    </vehicle>
    <vehicle id="197" depart="504.32">
        <route edges="-E9 -E7"/>
    </vehicle>
    <vehicle id="198" depart="506.88">
        <route edges="-E10 -E5 -E1 E3 -E7"/>
    </vehicle>
    <vehicle id="199" depart="509.44">
        <route edges="-E3 E1"/>
    </vehicle>
    <vehicle id="200" depart="512.00">
        <route edges="-E2 E5"/>
    </vehicle>
    <vehicle id="201" depart="514.56">
        <route edges="E0 E3 -E7 -E5 -E1"/>
    </vehicle>
    <vehicle id="202" depart="517.12">
        <route edges="-E5 E2"/>
    </vehicle>
    <vehicle id="203" depart="519.68">
        <route edges="-E5"/>
    </vehicle>
    <vehicle id="204" depart="522.24">
        <route edges="-E5 -E1 E3 E8"/>
    </vehicle>
    <vehicle id="205" depart="524.80">
        <route edges="-E8 -E3 E1 E5"/>
    </vehicle>
    <vehicle id="206" depart="527.36">
        <route edges="E3 -E7 -E5 E6"/>
    </vehicle>
    <vehicle id="207" depart="529.92">
        <route edges="-E5 -E1 -E0"/>
    </vehicle>
    <vehicle id="208" depart="532.48">
        <route edges="-E4 E1 E6"/>
    </vehicle>
    <vehicle id="209" depart="535.04">
        <route edges="E3 E9"/>
    </vehicle>
    <vehicle id="210" depart="537.60">
        <route edges="-E7 -E5 -E1 E3"/>
    </vehicle>
    <vehicle id="211" depart="540.16">
        <route edges="-E2 -E1 E3 -E7 -E5"/>
    </vehicle>
    <vehicle id="212" depart="542.72">
        <route edges="-E5 -E1 -E0"/>
    </vehicle>
    <vehicle id="213" depart="545.28">
        <route edges="-E4 E3 -E7 -E5 -E1 E4"/>
    </vehicle>
    <vehicle id="214" depart="547.84">
        <route edges="-E6 E5 E7 -E3"/>
    </vehicle>
    <vehicle id="215" depart="550.40">
        <route edges="-E8 -E3 -E0"/>
    </vehicle>
    <vehicle id="216" depart="552.96">
        <route edges="-E5 -E1 E3"/>
    </vehicle>
    <vehicle id="217" depart="555.52">
        <route edges="-E1 E4"/>
    </vehicle>
    <vehicle id="218" depart="558.08">
        <route edges="-E11 -E5 -E1 E3 -E7 E11"/>
    </vehicle>
    <vehicle id="219" depart="560.64">
        <route edges="-E1 E3 -E7 E10"/>
    </vehicle>
    <vehicle id="220" depart="563.20">
        <route edges="-E2 E5 E7 -E3 E1"/>
    </vehicle>
    <vehicle id="221" depart="565.76">
        <route edges="E1 E5 E10"/>
    </vehicle>
    <vehicle id="222" depart="568.32">
        <route edges="E1 E5 E7"/>
    </vehicle>
    <vehicle id="223" depart="570.88">
        <route edges="-E1 E3 -E7 -E5 E2"/>
    </vehicle>
    <vehicle id="224" depart="573.44">
        <route edges="E7 -E3 E1"/>
    </vehicle>
    <vehicle id="225" depart="576.00">
        <route edges="-E9 -E7 -E5 E6"/>
    </vehicle>
    <vehicle id="226" depart="578.56">
        <route edges="-E9 -E7 -E5 E6"/>
    </vehicle>
    <vehicle id="227" depart="581.12">
        <route edges="-E11 -E5 -E1 E4"/>
    </vehicle>
    <vehicle id="228" depart="583.68">
        <route edges="-E8 -E7 -E5"/>
    </vehicle>
    <vehicle id="229" depart="586.24">
        <route edges="E0 E1 E6"/>
    </vehicle>
    <vehicle id="230" depart="588.80">
        <route edges="-E11 -E5 -E1 E3"/>
    </vehicle>
    <vehicle id="231" depart="591.36">
        <route edges="E0 E3 -E7 -E5 -E1"/>
    </vehicle>
    <vehicle id="232" depart="593.92">
        <route edges="E3 E9"/>
    </vehicle>
    <vehicle id="233" depart="596.48">
        <route edges="-E10 -E5 -E1 -E0"/>
    </vehicle>
    <vehicle id="234" depart="599.04">
        <route edges="-E3 E4"/>
    </vehicle>
    <vehicle id="235" depart="601.60">
        <route edges="E7 -E3 E1 E5 E10"/>
    </vehicle>
    <vehicle id="236" depart="604.16">
        <route edges="E0 E3 -E7 -E5 -E1"/>
    </vehicle>
    <vehicle id="237" depart="606.72">
        <route edges="E0 E4"/>
    </vehicle>
    <vehicle id="238" depart="609.28">
        <route edges="-E10 -E5 E6"/>
    </vehicle>
    <vehicle id="239" depart="611.84">
        <route edges="E3"/>
    </vehicle>
    <vehicle id="240" depart="614.40">
        <route edges="-E10 E7 E9"/>
    </vehicle>
    <vehicle id="241" depart="616.96">
        <route edges="E1"/>
    </vehicle>
    <vehicle id="242" depart="619.52">
        <route edges="-E10 E7 E9"/>
    </vehicle>
    <vehicle id="243" depart="622.08">
        <route edges="-E9 -E3 E1 E5 E7"/>
    </vehicle>
    <vehicle id="244" depart="624.64">
        <route edges="E0 E3 -E7 E10"/>
    </vehicle>
    <vehicle id="245" depart="627.20">
        <route edges="E0 E3 E9"/>
    </vehicle>
    <vehicle id="246" depart="629.76">
        <route edges="-E3 E1 E6"/>
    </vehicle>
    <vehicle id="247" depart="632.32">
        <route edges="-E7 E11"/>
    </vehicle>
    <vehicle id="248" depart="634.88">
        <route edges="-E3 E1 E5 E7"/>
    </vehicle>
    <vehicle id="249" depart="637.44">
        <route edges="E3 -E7 -E5 -E1"/>
    </vehicle>
    <vehicle id="250" depart="640.00">
        <route edges="-E6 -E1 E3"/>
    </vehicle>
    <vehicle id="251" depart="642.56">
        <route edges="-E5 -E1 -E0"/>
    </vehicle>
    <vehicle id="252" depart="645.12">
        <route edges="-E2 E6"/>
    </vehicle>
    <vehicle id="253" depart="647.68">
        <route edges="-E4 E3 E8"/>
    </vehicle>
    <vehicle id="254" depart="650.24">
        <route edges="E0 E3 -E7"/>
    </vehicle>
    <vehicle id="255" depart="652.80">
        <route edges="-E1 E3 E9"/>
    </vehicle>
    <vehicle id="256" depart="655.36">
        <route edges="-E10 E7 -E3 E1 E5"/>
    </vehicle>
    <vehicle id="257" depart="657.92">
        <route edges="-E6 -E1 E3 -E7 -E5 E6"/>
    </vehicle>
    <vehicle id="258" depart="660.48">
        <route edges="E0 E4"/>
    </vehicle>
    <vehicle id="259" depart="663.04">
        <route edges="-E6 -E1 E3 -E7 -E5 E6"/>
    </vehicle>
    <vehicle id="260" depart="665.60">
        <route edges="-E10 -E5"/>
    </vehicle>
    <vehicle id="261" depart="668.16">
        <route edges="E0 E3 -E7"/>
    </vehicle>
    <vehicle id="262" depart="670.72">
        <route edges="-E8 -E7 E11"/>
    </vehicle>
    <vehicle id="263" depart="673.28">
        <route edges="-E7 E10"/>
    </vehicle>
    <vehicle id="264" depart="675.84">
        <route edges="E0 E1"/>
    </vehicle>
    <vehicle id="265" depart="678.40">
        <route edges="E0 E3 -E7"/>
    </vehicle>
    <vehicle id="266" depart="680.96">
        <route edges="-E2 -E1"/>
    </vehicle>
    <vehicle id="267" depart="683.52">
        <route edges="-E7 -E5 E6"/>
    </vehicle>
    <vehicle id="268" depart="686.08">
        <route edges="-E11 -E5"/>
    </vehicle>
    <vehicle id="269" depart="688.64">
        <route edges="-E6 E5"/>
    </vehicle>
    <vehicle id="270" depart="691.20">
        <route edges="E7 -E3 E1 E2"/>
    </vehicle>
    <vehicle id="271" depart="693.76">
        <route edges="-E2 -E1 E3 -E7 -E5"/>
    </vehicle>
    <vehicle id="272" depart="696.32">
        <route edges="-E11 -E5 -E1 -E0"/>
    </vehicle>
    <vehicle id="273" depart="698.88">
        <route edges="-E7"/>
    </vehicle>
    <vehicle id="274" depart="701.44">
        <route edges="E7 -E3 E1 E2"/>
    </vehicle>
    <vehicle id="275" depart="704.00">
        <route edges="E0 E1 E5 E7 -E3"/>
    </vehicle>
    <vehicle id="276" depart="706.56">
        <route edges="E3 -E7 E11"/>
    </vehicle>
    <vehicle id="277" depart="709.12">
        <route edges="E3"/>
    </vehicle>
    <vehicle id="278" depart="711.68">
        <route edges="-E6 E5 E11"/>
    </vehicle>
    <vehicle id="279" depart="714.24">
        <route edges="-E11 -E5 -E1 -E0"/>
    </vehicle>
    <vehicle id="280" depart="716.80">
        <route edges="E7 -E3 E1 E5 E11"/>
    </vehicle>
    <vehicle id="281" depart="719.36">
        <route edges="E3 -E7 E10"/>
    </vehicle>
    <vehicle id="282" depart="721.92">
        <route edges="-E10 E7 -E3 E4"/>
    </vehicle>
    <vehicle id="283" depart="724.48">
        <route edges="-E8 -E7"/>
    </vehicle>
    <vehicle id="284" depart="727.04">
        <route edges="-E7 E11"/>
    </vehicle>
    <vehicle id="285" depart="729.60">
        <route edges="-E6 E5 E7"/>
    </vehicle>
    <vehicle id="286" depart="732.16">
        <route edges="-E8 -E7 -E5 -E1 E3"/>
    </vehicle>
    <vehicle id="287" depart="734.72">
        <route edges="E0 E3 E9"/>
    </vehicle>
    <vehicle id="288" depart="737.28">
        <route edges="-E2 -E1 E3 -E7 -E5"/>
    </vehicle>
    <vehicle id="289" depart="739.84">
        <route edges="-E9 -E3"/>
    </vehicle>
    <vehicle id="290" depart="742.40">
        <route edges="-E11 -E5 -E1"/>
    </vehicle>
    <vehicle id="291" depart="744.96">
        <route edges="-E1 E3 -E7 E11"/>
    </vehicle>
    <vehicle id="292" depart="747.52">
        <route edges="-E8 -E7"/>
    </vehicle>
    <vehicle id="293" depart="750.08">
        <route edges="-E2 E5"/>
    </vehicle>
    <vehicle id="294" depart="752.64">
        <route edges="E0 E1 E5 E11"/>
    </vehicle>
    <vehicle id="295" depart="755.20">
        <route edges="-E9 E8"/>
    </vehicle>
    <vehicle id="296" depart="757.76">
        <route edges="E1 E5 E7 -E3 E4"/>
    </vehicle>
    <vehicle id="297" depart="760.32">
        <route edges="-E9 E8"/>
    </vehicle>
    <vehicle id="298" depart="762.88">
        <route edges="-E5 E2"/>
    </vehicle>
    <vehicle id="299" depart="765.44">
        <route edges="-E9 E8"/>
    </vehicle>
    <vehicle id="300" depart="768.00">
        <route edges="E3 -E7 -E5 -E1"/>
    </vehicle>
    <vehicle id="301" depart="770.56">
        <route edges="-E11 -E5 -E1 E3 -E7"/>
    </vehicle>
    <vehicle id="302" depart="773.12">
        <route edges="E0 E3"/>
    </vehicle>
    <vehicle id="303" depart="775.68">
        <route edges="E0 E1 E5"/>
    </vehicle>
    <vehicle id="304" depart="778.24">
        <route edges="E7 -E3 E1 E2"/>
    </vehicle>
    <vehicle id="305" depart="780.80">
        <route edges="-E6 -E1"/>
    </vehicle>
    <vehicle id="306" depart="783.36">
        <route edges="-E1 E3 -E7 E10"/>
    </vehicle>
    <vehicle id="307" depart="785.92">
        <route edges="-E4 E3 -E7"/>
    </vehicle>
    <vehicle id="308" depart="788.48">
        <route edges="-E10 E7 E9"/>
    </vehicle>
    <vehicle id="309" depart="791.04">
        <route edges="E3"/>
    </vehicle>
    <vehicle id="310" depart="793.60">
        <route edges="E7 E9"/>
    </vehicle>
    <vehicle id="311" depart="796.16">
        <route edges="-E9 -E7"/>
    </vehicle>
    <vehicle id="312" depart="798.72">
        <route edges="-E1 E3 -E7 -E5 E6"/>
    </vehicle>
    <vehicle id="313" depart="801.28">
        <route edges="-E6 -E1 E4"/>
    </vehicle>
    <vehicle id="314" depart="803.84">
        <route edges="E5 E7 -E3"/>
    </vehicle>
    <vehicle id="315" depart="806.40">
        <route edges="-E8 -E3 E4"/>
    </vehicle>
    <vehicle id="316" depart="808.96">
        <route edges="-E6 -E1"/>
    </vehicle>
    <vehicle id="317" depart="811.52">
        <route edges="-E4 E1"/>
    </vehicle>
    <vehicle id="318" depart="814.08">
        <route edges="-E9 -E3 E1 E5 E7"/>
    </vehicle>