<?xml version="1.0" encoding="UTF-8"?>

<!-- generated on 2026-03-08T22:52:23.543056+08:00 by Eclipse SUMO marouter 1.25.0
<marouterConfiguration xmlns:xsi="http://www.w3.org/2001/XMLSchema-instance" xsi:noNamespaceSchemaLocation="http://sumo.dlr.de/xsd/marouterConfiguration.xsd">

    <input>
        <net-file value="c:\Users\otaku\Documents\Thesis\apriori_civiq\scenarios\test_simple\final_map.net.xml"/>
        <route-files value="c:\Users\otaku\Documents\Thesis\apriori_civiq\scenarios\test_simple\trips_low.xml"/>
    </input>

    <output>
        <output-file value="c:\Users\otaku\Documents\Thesis\apriori_civiq\scenarios\test_simple\wardrop_routes_low.rou.xml"/>
    </output>

    <processing>
        <max-alternatives value="5"/>
        <assignment-method value="SUE"/>
    </processing>

    <report>
        <verbose value="true"/>
        <ignore-errors value="true"/>
    </report>

</marouterConfiguration>
-->

<routes xmlns:xsi="http://www.w3.org/2001/XMLSchema-instance" xsi:noNamespaceSchemaLocation="http://sumo.dlr.de/xsd/routes_file.xsd">
    <vehicle id="0" depart="0.00" departLane="free" departSpeed="max">
        <routeDistribution>
            <route cost="108.16" probability="7.00000000" edges="-E9 -E3 -E0"/>
        </routeDistribution>
    </vehicle>
    <vehicle id="1" depart="6.40" departLane="free" departSpeed="max">
        <routeDistribution>
            <route cost="71.62" probability="5.00000000" edges="E0 E4"/>
        </routeDistribution>
    </vehicle>
    <vehicle id="2" depart="12.80" departLane="free" departSpeed="max">
        <routeDistribution>
            <route cost="108.90" probability="6.00000000" edges="-E5 -E1 -E0"/>
        </routeDistribution>
    </vehicle>
    <vehicle id="3" depart="19.20" departLane="free" departSpeed="max">
        <routeDistribution>
            <route cost="218.26" probability="0.49752387" edges="-E2 -E1 E3 -E7 -E5 E2"/>
            <route cost="217.27" probability="0.50247613" edges="-E2 E5 E7 -E3 E1 E2"/>
        </routeDistribution>
    </vehicle>
    <vehicle id="4" depart="25.60" departLane="free" departSpeed="max">
        <routeDistribution>
            <route cost="146.59" probability="2.00000000" edges="-E1 E3 -E7 -E5"/>
        </routeDistribution>
    </vehicle>
    <vehicle id="5" depart="32.00" departLane="free" departSpeed="max">
        <routeDistribution>
            <route cost="145.18" probability="1.49678386" edges="-E9 -E7 -E5 E2"/>
            <route cost="144.75" probability="1.50321614" edges="-E9 -E3 E1 E2"/>
        </routeDistribution>
    </vehicle>
    <vehicle id="6" depart="38.40" departLane="free" departSpeed="max">
        <routeDistribution>
            <route cost="109.06" probability="1.00000000" edges="-E2 -E1 E3"/>
        </routeDistribution>
    </vehicle>
    <vehicle id="7" depart="44.80" departLane="free" departSpeed="max">
        <routeDistribution>
            <route cost="181.35" probability="2.00000000" edges="E1 E5 E7 -E3 -E0"/>
        </routeDistribution>
    </vehicle>
    <vehicle id="8" depart="51.20" departLane="free" departSpeed="max">
        <routeDistribution>
            <route cost="72.76" probability="3.00000000" edges="E1 E5"/>
        </routeDistribution>
    </vehicle>
    <vehicle id="9" depart="57.60" departLane="free" departSpeed="max">
        <routeDistribution>
            <route cost="181.33" probability="3.00000000" edges="-E4 E1 E5 E7 -E3"/>
        </routeDistribution>
    </vehicle>
    <vehicle id="10" depart="64.00" departLane="free" departSpeed="max">
        <routeDistribution>
            <route cost="109.29" probability="2.00000000" edges="E7 -E3 E1"/>
        </routeDistribution>
    </vehicle>
    <vehicle id="11" depart="70.40" departLane="free" departSpeed="max">
        <routeDistribution>
            <route cost="109.05" probability="1.00000000" edges="-E10 -E5 -E1"/>
        </routeDistribution>
    </vehicle>
    <vehicle id="12" depart="76.80" departLane="free" departSpeed="max">
        <routeDistribution>
            <route cost="36.78" probability="11.00000000" edges="E3"/>
        </routeDistribution>
    </vehicle>
    <vehicle id="13" depart="83.20" departLane="free" departSpeed="max">
        <routeDistribution>
            <route cost="72.76" probability="3.00000000" edges="E1 E5"/>
        </routeDistribution>
    </vehicle>
    <vehicle id="14" depart="89.60" departLane="free" departSpeed="max">
        <routeDistribution>
            <route cost="182.34" probability="3.00000000" edges="-E7 -E5 -E1 E3 E9"/>
        </routeDistribution>
    </vehicle>
    <vehicle id="15" depart="96.00" departLane="free" departSpeed="max">
        <routeDistribution>
            <route cost="72.54" probability="4.00000000" edges="-E5 E2"/>
        </routeDistribution>
    </vehicle>
    <vehicle id="16" depart="102.40" departLane="free" departSpeed="max">
        <routeDistribution>
            <route cost="36.78" probability="11.00000000" edges="E3"/>
        </routeDistribution>
    </vehicle>
    <vehicle id="17" depart="108.80" departLane="free" departSpeed="max">
        <routeDistribution>
            <route cost="36.78" probability="11.00000000" edges="E3"/>
        </routeDistribution>
    </vehicle>
    <vehicle id="18" depart="115.20" departLane="free" departSpeed="max">
        <routeDistribution>
            <route cost="218.20" probability="0.49752387" edges="E0 E3 -E7 -E5 -E1 -E0"/>
            <route cost="217.21" probability="0.50247613" edges="E0 E1 E5 E7 -E3 -E0"/>
        </routeDistribution>
    </vehicle>
    <vehicle id="19" depart="121.60" departLane="free" departSpeed="max">
        <routeDistribution>
            <route cost="145.73" probability="2.00000000" edges="-E2 -E1 E3 -E7"/>
        </routeDistribution>
    </vehicle>
    <vehicle id="20" depart="128.00" departLane="free" departSpeed="max">
        <routeDistribution>
            <route cost="72.55" probability="5.00000000" edges="-E10 -E5"/>
        </routeDistribution>
    </vehicle>
    <vehicle id="21" depart="134.40" departLane="free" departSpeed="max">
        <routeDistribution>
            <route cost="182.49" probability="3.00000000" edges="-E10 -E5 -E1 E3 -E7"/>
        </routeDistribution>
    </vehicle>
    <vehicle id="22" depart="140.80" departLane="free" departSpeed="max">
        <routeDistribution>
            <route cost="108.87" probability="3.00000000" edges="-E9 -E3 E1"/>
        </routeDistribution>
    </vehicle>
    <vehicle id="23" depart="147.20" departLane="free" departSpeed="max">
        <routeDistribution>
            <route cost="145.83" probability="1.00000000" edges="-E4 E3 -E7 -E5"/>
        </routeDistribution>
    </vehicle>
    <vehicle id="24" depart="153.60" departLane="free" departSpeed="max">
        <routeDistribution>
            <route cost="181.36" probability="3.00000000" edges="-E3 E1 E5 E7 E8"/>
        </routeDistribution>
    </vehicle>
    <vehicle id="25" depart="160.00" departLane="free" departSpeed="max">
        <routeDistribution>
            <route cost="182.57" probability="3.00000000" edges="-E9 -E7 -E5 -E1 E3"/>
        </routeDistribution>
    </vehicle>
    <vehicle id="26" depart="166.40" departLane="free" departSpeed="max">
        <routeDistribution>
            <route cost="181.32" probability="1.00000000" edges="-E11 E7 -E3 E1 E5"/>
        </routeDistribution>
    </vehicle>
    <vehicle id="27" depart="172.80" departLane="free" departSpeed="max">
        <routeDistribution>
            <route cost="71.45" probability="3.00000000" edges="-E11 E10"/>
        </routeDistribution>
    </vehicle>
    <vehicle id="28" depart="179.20" departLane="free" departSpeed="max">
        <routeDistribution>
            <route cost="108.60" probability="5.00000000" edges="E7 -E3 E4"/>
        </routeDistribution>
    </vehicle>
    <vehicle id="29" depart="185.60" departLane="free" departSpeed="max">
        <routeDistribution>
            <route cost="145.57" probability="1.00000000" edges="-E7 -E5 -E1 E4"/>
        </routeDistribution>
    </vehicle>
    <vehicle id="30" depart="192.00" departLane="free" departSpeed="max">
        <routeDistribution>
            <route cost="145.87" probability="4.00000000" edges="E3 -E7 -E5 E6"/>
        </routeDistribution>
    </vehicle>
    <vehicle id="31" depart="198.40" departLane="free" departSpeed="max">
        <routeDistribution>
            <route cost="108.04" probability="2.00000000" edges="-E2 -E1 -E0"/>
        </routeDistribution>
    </vehicle>
    <vehicle id="32" depart="204.80" departLane="free" departSpeed="max">
        <routeDistribution>
            <route cost="109.18" probability="2.00000000" edges="-E4 E3 -E7"/>
        </routeDistribution>
    </vehicle>
    <vehicle id="33" depart="211.20" departLane="free" departSpeed="max">
        <routeDistribution>
            <route cost="144.81" probability="0.49859590" edges="-E2 -E1 E3 E9"/>
            <route cost="144.25" probability="0.50140410" edges="-E2 E5 E7 E9"/>
        </routeDistribution>
    </vehicle>
    <vehicle id="34" depart="217.60" departLane="free" departSpeed="max">
        <routeDistribution>
            <route cost="145.60" probability="2.00000000" edges="E5 E7 -E3 E1"/>
        </routeDistribution>
    </vehicle>
    <vehicle id="35" depart="224.00" departLane="free" departSpeed="max">
        <routeDistribution>
            <route cost="108.36" probability="3.00000000" edges="-E9 -E7 E10"/>
        </routeDistribution>
    </vehicle>
    <vehicle id="36" depart="230.40" departLane="free" departSpeed="max">
        <routeDistribution>
            <route cost="72.12" probability="2.00000000" edges="E5 E11"/>
        </routeDistribution>
    </vehicle>
    <vehicle id="37" depart="236.80" departLane="free" departSpeed="max">
        <routeDistribution>
            <route cost="36.66" probability="2.00000000" edges="-E7"/>
        </routeDistribution>
    </vehicle>
    <vehicle id="38" depart="243.20" departLane="free" departSpeed="max">
        <routeDistribution>
            <route cost="218.06" probability="0.49752387" edges="-E8 -E7 -E5 -E1 E3 E8"/>
            <route cost="217.07" probability="0.50247613" edges="-E8 -E3 E1 E5 E7 E8"/>
        </routeDistribution>
    </vehicle>
    <vehicle id="39" depart="249.60" departLane="free" departSpeed="max">
        <routeDistribution>
            <route cost="36.65" probability="3.00000000" edges="-E5"/>
        </routeDistribution>
    </vehicle>
    <vehicle id="40" depart="256.00" departLane="free" departSpeed="max">
        <routeDistribution>
            <route cost="145.18" probability="6.00000000" edges="E7 -E3 E1 E2"/>
        </routeDistribution>
    </vehicle>
    <vehicle id="41" depart="262.40" departLane="free" departSpeed="max">
        <routeDistribution>
            <route cost="144.80" probability="1.99690640" edges="-E10 -E5 -E1 -E0"/>
            <route cost="144.49" probability="2.00309360" edges="-E10 E7 -E3 -E0"/>
        </routeDistribution>
    </vehicle>
    <vehicle id="42" depart="268.80" departLane="free" departSpeed="max">
        <routeDistribution>
            <route cost="144.81" probability="2.99535960" edges="-E10 -E5 -E1 E4"/>
            <route cost="144.50" probability="3.00464040" edges="-E10 E7 -E3 E4"/>
        </routeDistribution>
    </vehicle>
    <vehicle id="43" depart="275.20" departLane="free" departSpeed="max">
        <routeDistribution>
            <route cost="108.48" probability="3.00000000" edges="E1 E5 E10"/>
        </routeDistribution>
    </vehicle>
    <vehicle id="44" depart="281.60" departLane="free" departSpeed="max">
        <routeDistribution>
            <route cost="218.21" probability="2.48761934" edges="-E10 -E5 -E1 E3 -E7 E10"/>
            <route cost="217.22" probability="2.51238066" edges="-E10 E7 -E3 E1 E5 E10"/>
        </routeDistribution>
    </vehicle>
    <vehicle id="45" depart="288.00" departLane="free" departSpeed="max">
        <routeDistribution>
            <route cost="145.18" probability="6.00000000" edges="E7 -E3 E1 E2"/>
        </routeDistribution>
    </vehicle>
    <vehicle id="46" depart="294.40" departLane="free" departSpeed="max">
        <routeDistribution>
            <route cost="36.41" probability="4.00000000" edges="E7"/>
        </routeDistribution>
    </vehicle>
    <vehicle id="47" depart="300.80" departLane="free" departSpeed="max">
        <routeDistribution>
            <route cost="145.18" probability="1.49678386" edges="-E9 -E7 -E5 E2"/>
            <route cost="144.75" probability="1.50321614" edges="-E9 -E3 E1 E2"/>
        </routeDistribution>
    </vehicle>
    <vehicle id="48" depart="307.20" departLane="free" departSpeed="max">
        <routeDistribution>
            <route cost="72.20" probability="3.00000000" edges="-E3 E4"/>
        </routeDistribution>
    </vehicle>
    <vehicle id="49" depart="313.60" departLane="free" departSpeed="max">
        <routeDistribution>
            <route cost="218.21" probability="2.48761934" edges="-E10 -E5 -E1 E3 -E7 E10"/>
            <route cost="217.22" probability="2.51238066" edges="-E10 E7 -E3 E1 E5 E10"/>
        </routeDistribution>
    </vehicle>
    <vehicle id="50" depart="320.00" departLane="free" departSpeed="max">
        <routeDistribution>
            <route cost="144.81" probability="0.99719180" edges="-E6 -E1 E3 E9"/>
            <route cost="144.25" probability="1.00280820" edges="-E6 E5 E7 E9"/>
        </routeDistribution>
    </vehicle>
    <vehicle id="51" depart="326.40" departLane="free" departSpeed="max">
        <routeDistribution>
            <route cost="72.71" probability="5.00000000" edges="E5 E7"/>
        </routeDistribution>
    </vehicle>
    <vehicle id="52" depart="332.80" departLane="free" departSpeed="max">
        <routeDistribution>
            <route cost="72.20" probability="3.00000000" edges="-E3 E4"/>
        </routeDistribution>
    </vehicle>
    <vehicle id="53" depart="339.20" departLane="free" departSpeed="max">
        <routeDistribution>
            <route cost="72.14" probability="1.00000000" edges="-E8 -E3"/>
        </routeDistribution>
    </vehicle>
    <vehicle id="54" depart="345.60" departLane="free" departSpeed="max">
        <routeDistribution>
            <route cost="72.34" probability="5.00000000" edges="E1 E2"/>
        </routeDistribution>
    </vehicle>
    <vehicle id="55" depart="352.00" departLane="free" departSpeed="max">
        <routeDistribution>
            <route cost="72.34" probability="5.00000000" edges="E1 E2"/>
        </routeDistribution>
    </vehicle>
    <vehicle id="56" depart="358.40" departLane="free" departSpeed="max">
        <routeDistribution>
            <route cost="109.04" probability="3.00000000" edges="-E1 E3 E8"/>
        </routeDistribution>
    </vehicle>
    <vehicle id="57" depart="364.80" departLane="free" departSpeed="max">
        <routeDistribution>
            <route cost="72.71" probability="5.00000000" edges="E5 E7"/>
        </routeDistribution>
    </vehicle>
    <vehicle id="58" depart="371.20" departLane="free" departSpeed="max">
        <routeDistribution>
            <route cost="72.18" probability="1.00000000" edges="-E3 -E0"/>
        </routeDistribution>
    </vehicle>
    <vehicle id="59" depart="377.60" departLane="free" departSpeed="max">
        <routeDistribution>
            <route cost="108.46" probability="2.00000000" edges="E5 E7 E9"/>
        </routeDistribution>
    </vehicle>
    <vehicle id="60" depart="384.00" departLane="free" departSpeed="max">
        <routeDistribution>
            <route cost="71.72" probability="3.00000000" edges="-E10 E11"/>
        </routeDistribution>
    </vehicle>
    <vehicle id="61" depart="390.40" departLane="free" departSpeed="max">
        <routeDistribution>
            <route cost="108.33" probability="3.00000000" edges="-E10 -E5 E6"/>
        </routeDistribution>
    </vehicle>
    <vehicle id="62" depart="396.80" departLane="free" departSpeed="max">
        <routeDistribution>
            <route cost="145.60" probability="2.00000000" edges="E1 E5 E7 -E3"/>
        </routeDistribution>
    </vehicle>
    <vehicle id="63" depart="403.20" departLane="free" departSpeed="max">
        <routeDistribution>
            <route cost="71.68" probability="3.00000000" edges="-E6 E2"/>
        </routeDistribution>
    </vehicle>
    <vehicle id="64" depart="409.60" departLane="free" departSpeed="max">
        <routeDistribution>
            <route cost="145.60" probability="4.00000000" edges="-E3 E1 E5 E7"/>
        </routeDistribution>
    </vehicle>
    <vehicle id="65" depart="416.00" departLane="free" departSpeed="max">
        <routeDistribution>
            <route cost="36.65" probability="3.00000000" edges="-E5"/>
        </routeDistribution>
    </vehicle>
    <vehicle id="66" depart="422.40" departLane="free" departSpeed="max">
        <routeDistribution>
            <route cost="145.73" probability="2.00000000" edges="-E2 -E1 E3 -E7"/>
        </routeDistribution>
    </vehicle>
    <vehicle id="67" depart="428.80" departLane="free" departSpeed="max">
        <routeDistribution>
            <route cost="108.60" probability="5.00000000" edges="E7 -E3 E4"/>
        </routeDistribution>
    </vehicle>
    <vehicle id="68" depart="435.20" departLane="free" departSpeed="max">
        <routeDistribution>
            <route cost="71.68" probability="3.00000000" edges="-E6 E2"/>
        </routeDistribution>
    </vehicle>
    <vehicle id="69" depart="441.60" departLane="free" departSpeed="max">
        <routeDistribution>
            <route cost="72.55" probability="5.00000000" edges="-E10 -E5"/>
        </routeDistribution>
    </vehicle>
    <vehicle id="70" depart="448.00" departLane="free" departSpeed="max">
        <routeDistribution>
            <route cost="72.52" probability="3.00000000" edges="-E4 E3"/>
        </routeDistribution>
    </vehicle>
    <vehicle id="71" depart="454.40" departLane="free" departSpeed="max">
        <routeDistribution>
            <route cost="182.38" probability="5.00000000" edges="-E2 -E1 E3 -E7 -E5"/>
        </routeDistribution>
    </vehicle>
    <vehicle id="72" depart="460.80" departLane="free" departSpeed="max">
        <routeDistribution>
            <route cost="144.81" probability="2.99535960" edges="-E10 -E5 -E1 E4"/>
            <route cost="144.50" probability="3.00464040" edges="-E10 E7 -E3 E4"/>
        </routeDistribution>
    </vehicle>
    <vehicle id="73" depart="467.20" departLane="free" departSpeed="max">
        <routeDistribution>
            <route cost="144.83" probability="1.49578770" edges="-E2 -E1 E3 E8"/>
            <route cost="144.27" probability="1.50421230" edges="-E2 E5 E7 E8"/>
        </routeDistribution>
    </vehicle>
    <vehicle id="74" depart="473.60" departLane="free" departSpeed="max">
        <routeDistribution>
            <route cost="146.59" probability="6.00000000" edges="E3 -E7 -E5 -E1"/>
        </routeDistribution>
    </vehicle>
    <vehicle id="75" depart="480.00" departLane="free" departSpeed="max">
        <routeDistribution>
            <route cost="108.05" probability="2.00000000" edges="-E2 -E1 E4"/>
        </routeDistribution>
    </vehicle>
    <vehicle id="76" depart="486.40" departLane="free" departSpeed="max">
        <routeDistribution>
            <route cost="144.94" probability="2.00000000" edges="-E2 E5 E7 -E3"/>
        </routeDistribution>
    </vehicle>
    <vehicle id="77" depart="492.80" departLane="free" departSpeed="max">
        <routeDistribution>
            <route cost="218.16" probability="1.99009547" edges="-E6 -E1 E3 -E7 -E5 E6"/>
            <route cost="217.17" probability="2.00990453" edges="-E6 E5 E7 -E3 E1 E6"/>
        </routeDistribution>
    </vehicle>
    <vehicle id="78" depart="499.20" departLane="free" departSpeed="max">
        <routeDistribution>
            <route cost="218.21" probability="2.48761934" edges="-E10 -E5 -E1 E3 -E7 E10"/>
            <route cost="217.22" probability="2.51238066" edges="-E10 E7 -E3 E1 E5 E10"/>
        </routeDistribution>
    </vehicle>
    <vehicle id="79" depart="505.60" departLane="free" departSpeed="max">
        <routeDistribution>
            <route cost="182.41" probability="1.00000000" edges="-E5 -E1 E3 -E7 E11"/>
        </routeDistribution>
    </vehicle>
    <vehicle id="80" depart="512.00" departLane="free" departSpeed="max">
        <routeDistribution>
            <route cost="71.62" probability="5.00000000" edges="E0 E4"/>
        </routeDistribution>
    </vehicle>
    <vehicle id="81" depart="518.40" departLane="free" departSpeed="max">
        <routeDistribution>
            <route cost="110.09" probability="3.00000000" edges="E3 -E7 -E5"/>
        </routeDistribution>
    </vehicle>
    <vehicle id="82" depart="524.80" departLane="free" departSpeed="max">
        <routeDistribution>
            <route cost="107.91" probability="3.00000000" edges="-E2 E5 E11"/>
        </routeDistribution>
    </vehicle>
    <vehicle id="83" depart="531.20" departLane="free" departSpeed="max">
        <routeDistribution>
            <route cost="146.59" probability="5.00000000" edges="-E5 -E1 E3 -E7"/>
        </routeDistribution>
    </vehicle>
    <vehicle id="84" depart="537.60" departLane="free" departSpeed="max">
        <routeDistribution>
            <route cost="144.83" probability="1.49578770" edges="-E2 -E1 E3 E8"/>
            <route cost="144.27" probability="1.50421230" edges="-E2 E5 E7 E8"/>
        </routeDistribution>
    </vehicle>
    <vehicle id="85" depart="544.00" departLane="free" departSpeed="max">
        <routeDistribution>
            <route cost="108.50" probability="2.00000000" edges="-E6 E5 E7"/>
        </routeDistribution>
    </vehicle>
    <vehicle id="86" depart="550.40" departLane="free" departSpeed="max">
        <routeDistribution>
            <route cost="145.56" probability="2.00000000" edges="-E7 -E5 -E1 -E0"/>
        </routeDistribution>
    </vehicle>
    <vehicle id="87" depart="556.80" departLane="free" departSpeed="max">
        <routeDistribution>
            <route cost="36.41" probability="4.00000000" edges="E7"/>
        </routeDistribution>
    </vehicle>
    <vehicle id="88" depart="563.20" departLane="free" departSpeed="max">
        <routeDistribution>
            <route cost="72.17" probability="2.00000000" edges="E7 E8"/>
        </routeDistribution>
    </vehicle>
    <vehicle id="89" depart="569.60" departLane="free" departSpeed="max">
        <routeDistribution>
            <route cost="182.38" probability="5.00000000" edges="-E6 -E1 E3 -E7 -E5"/>
        </routeDistribution>
    </vehicle>
    <vehicle id="90" depart="576.00" departLane="free" departSpeed="max">
        <routeDistribution>
            <route cost="108.90" probability="6.00000000" edges="-E5 -E1 -E0"/>
        </routeDistribution>
    </vehicle>
    <vehicle id="91" depart="582.40" departLane="free" departSpeed="max">
        <routeDistribution>
            <route cost="145.68" probability="1.00000000" edges="-E5 -E1 E3 E9"/>
        </routeDistribution>
    </vehicle>
    <vehicle id="92" depart="588.80" departLane="free" departSpeed="max">
        <routeDistribution>
            <route cost="108.66" probability="4.00000000" edges="-E3 E1 E6"/>
        </routeDistribution>
    </vehicle>
    <vehicle id="93" depart="595.20" departLane="free" departSpeed="max">
        <routeDistribution>
            <route cost="107.82" probability="3.00000000" edges="-E6 E5 E10"/>
        </routeDistribution>
    </vehicle>
    <vehicle id="94" depart="601.60" departLane="free" departSpeed="max">
        <routeDistribution>
            <route cost="72.16" probability="3.00000000" edges="E7 E9"/>
        </routeDistribution>
    </vehicle>
    <vehicle id="95" depart="608.00" departLane="free" departSpeed="max">
        <routeDistribution>
            <route cost="182.31" probability="2.00000000" edges="-E11 -E5 -E1 E3 -E7"/>
        </routeDistribution>
    </vehicle>
    <vehicle id="96" depart="614.40" departLane="free" departSpeed="max">
        <routeDistribution>
            <route cost="73.27" probability="2.00000000" edges="-E1 E3"/>
        </routeDistribution>
    </vehicle>
    <vehicle id="97" depart="620.80" departLane="free" departSpeed="max">
        <routeDistribution>
            <route cost="107.88" probability="3.00000000" edges="-E11 E7 E9"/>
        </routeDistribution>
    </vehicle>
    <vehicle id="98" depart="627.20" departLane="free" departSpeed="max">
        <routeDistribution>
            <route cost="108.74" probability="1.00000000" edges="-E10 E7 -E3"/>
        </routeDistribution>
    </vehicle>
    <vehicle id="99" depart="633.60" departLane="free" departSpeed="max">
        <routeDistribution>
            <route cost="107.91" probability="3.00000000" edges="-E8 -E3 E4"/>
        </routeDistribution>
    </vehicle>
    <vehicle id="100" depart="640.00" departLane="free" departSpeed="max">
        <routeDistribution>
            <route cost="72.29" probability="5.00000000" edges="-E2 -E1"/>
        </routeDistribution>
    </vehicle>
    <vehicle id="101" depart="646.40" departLane="free" departSpeed="max">
        <routeDistribution>
            <route cost="182.30" probability="4.00000000" edges="-E8 -E7 -E5 -E1 E3"/>
        </routeDistribution>
    </vehicle>
    <vehicle id="102" depart="652.80" departLane="free" departSpeed="max">
        <routeDistribution>
            <route cost="109.93" probability="6.00000000" edges="-E5 -E1 E3"/>
        </routeDistribution>
    </vehicle>
    <vehicle id="103" depart="659.20" departLane="free" departSpeed="max">
        <routeDistribution>
            <route cost="182.35" probability="4.00000000" edges="-E7 -E5 -E1 E3 E8"/>
        </routeDistribution>
    </vehicle>
    <vehicle id="104" depart="665.60" departLane="free" departSpeed="max">
        <routeDistribution>
            <route cost="72.10" probability="5.00000000" edges="-E2 E5"/>
        </routeDistribution>
    </vehicle>
    <vehicle id="105" depart="672.00" departLane="free" departSpeed="max">
        <routeDistribution>
            <route cost="107.82" probability="2.00000000" edges="-E2 E5 E10"/>
        </routeDistribution>
    </vehicle>
    <vehicle id="106" depart="678.40" departLane="free" departSpeed="max">
        <routeDistribution>
            <route cost="72.64" probability="7.00000000" edges="-E9 -E7"/>
        </routeDistribution>
    </vehicle>
    <vehicle id="107" depart="684.80" departLane="free" departSpeed="max">
        <routeDistribution>
            <route cost="107.97" probability="5.00000000" edges="-E4 E1 E6"/>
        </routeDistribution>
    </vehicle>
    <vehicle id="108" depart="691.20" departLane="free" departSpeed="max">
        <routeDistribution>
            <route cost="71.72" probability="3.00000000" edges="-E10 E11"/>
        </routeDistribution>
    </vehicle>
    <vehicle id="109" depart="697.60" departLane="free" departSpeed="max">
        <routeDistribution>
            <route cost="72.16" probability="3.00000000" edges="E7 E9"/>
        </routeDistribution>
    </vehicle>
    <vehicle id="110" depart="704.00" departLane="free" departSpeed="max">
        <routeDistribution>
            <route cost="72.55" probability="5.00000000" edges="-E10 -E5"/>
        </routeDistribution>
    </vehicle>
    <vehicle id="111" depart="710.40" departLane="free" departSpeed="max">
        <routeDistribution>
            <route cost="181.36" probability="3.00000000" edges="-E3 E1 E5 E7 E8"/>
        </routeDistribution>
    </vehicle>
    <vehicle id="112" depart="716.80" departLane="free" departSpeed="max">
        <routeDistribution>
            <route cost="108.48" probability="1.00000000" edges="E5 E7 E8"/>
        </routeDistribution>
    </vehicle>
    <vehicle id="113" depart="723.20" departLane="free" departSpeed="max">
        <routeDistribution>
            <route cost="181.33" probability="3.00000000" edges="-E4 E1 E5 E7 -E3"/>
        </routeDistribution>
    </vehicle>
    <vehicle id="114" depart="729.60" departLane="free" departSpeed="max">
        <routeDistribution>
            <route cost="71.46" probability="3.00000000" edges="-E8 E9"/>
        </routeDistribution>
    </vehicle>
    <vehicle id="115" depart="736.00" departLane="free" departSpeed="max">
        <routeDistribution>
            <route cost="108.16" probability="7.00000000" edges="-E9 -E3 -E0"/>
        </routeDistribution>
    </vehicle>
    <vehicle id="116" depart="742.40" departLane="free" departSpeed="max">
        <routeDistribution>
            <route cost="73.44" probability="2.00000000" edges="E3 -E7"/>
        </routeDistribution>
    </vehicle>
    <vehicle id="117" depart="748.80" departLane="free" departSpeed="max">
        <routeDistribution>
            <route cost="218.32" probability="0.99504774" edges="-E9 -E7 -E5 -E1 E3 E9"/>
            <route cost="217.33" probability="1.00495226" edges="-E9 -E3 E1 E5 E7 E9"/>
        </routeDistribution>
    </vehicle>
    <vehicle id="118" depart="755.20" departLane="free" departSpeed="max">
        <routeDistribution>
            <route cost="108.87" probability="3.00000000" edges="-E11 -E5 -E1"/>
        </routeDistribution>
    </vehicle>
    <vehicle id="119" depart="761.60" departLane="free" departSpeed="max">
        <routeDistribution>
            <route cost="108.44" probability="4.00000000" edges="-E10 -E5 E2"/>
        </routeDistribution>
    </vehicle>
    <vehicle id="120" depart="768.00" departLane="free" departSpeed="max">
        <routeDistribution>
            <route cost="145.95" probability="3.00000000" edges="E0 E3 -E7 -E5"/>
        </routeDistribution>
    </vehicle>
    <vehicle id="121" depart="774.40" departLane="free" departSpeed="max">
        <routeDistribution>
            <route cost="72.64" probability="7.00000000" edges="-E9 -E7"/>