<?xml version="1.0" encoding="UTF-8"?>

<!-- generated on 2026-01-14 12:04:06.045432 by Eclipse SUMO randomTrips.py v1_25_0+0000-ac6c5a6752d
<configuration>
    <net-file value="final_map.net.xml"/>
    <output-trip-file value="trips_low.xml"/>
    <trip-attributes value="departLane='best' type='thesis_car'"/>
    <fringe-factor value="20"/>
    <end value="1000.0"/>
    <period value="2.0"/>
</configuration>
-->

<!-- generated on 2026-01-14T12:04:05.869188+08:00 by Eclipse SUMO duarouter 1.25.0
<duarouterConfiguration xmlns:xsi="http://www.w3.org/2001/XMLSchema-instance" xsi:noNamespaceSchemaLocation="http://sumo.dlr.de/xsd/duarouterConfiguration.xsd">

    <input>
        <net-file value="final_map.net.xml"/>
        <route-files value="trips_low.xml"/>
    </input>

    <output>
        <output-file value="routes.rou.xml"/>
        <alternatives-output value="NUL"/>
    </output>

    <time>
        <begin value="0"/>
        <end value="1000.0"/>
    </time>

    <report>
        <no-warnings value="true"/>
        <ignore-errors value="true"/>
        <no-step-log value="true"/>
    </report>

</duarouterConfiguration>
-->

<routes xmlns:xsi="http://www.w3.org/2001/XMLSchema-instance" xsi:noNamespaceSchemaLocation="http://sumo.dlr.de/xsd/routes_file.xsd">
    <vehicle id="0" type="thesis_car" depart="0.00" departLane="best">
        <route edges="28539702#7 28539702#8 28539702#9 28539702#10 28539702#11 747228988 747333148#0 747228984#1 747232923 747228978#1 747228978#2 -1279816417 -746660481#0 -174398025#2 -174398025#0 -1212506817#1 -747853023#0 -749518015#0 -27260010 -749518016 -749508466#1 749508464#1 747951003#1 569219184 1341838019#0 1341838019#1 1341838019#2 748795299#0 748795299#1 139045450 139045450-AddedOffRampEdge 1298622263 619023262#0 619023262#1 770814991 215516160#0 215516153#1 -28995163#3 -28995163#0 -1072176585"/>
    </vehicle>
    <vehicle id="1" type="thesis_car" depart="2.00" departLane="best">
        <route edges="-428836644#2 -428836644#1 -617111196#1 -96489260#3 -96489260#2 -96489260#1 -96489260#0 1279816416 747232921#0 747228976#1 425382120 27260016 27260016-AddedOffRampEdge 586359130#0 586359130#1 746811049#0 746811049#1 746981175#0 746981175#1 747854796 747854793 1436005548 747854794#0 747854794#1 135048805#1 135048805#2 1292168032 453672430 126310265 453672432#0 453672432#1 942479700 1067217032 4940313#1 -229492741#1 -229492741#0 -28553959#7 -28553959#6 -28553959#5 -28553959#3 -1411148250 28553544#8 28553554#0 28553554#1 28553554#2 28553554#4 -183688028#10 -183688028#9 -183688028#8 -183688028#7 -183688028#6 -183688028#5 -183688028#4 -28553639#0"/>
    </vehicle>
    <vehicle id="2" type="thesis_car" depart="4.00" departLane="best">
        <route edges="745055614#1 745055614#2 745055614#3 323726178#1 746653783#1 -746660481#0 -174398025#2 -174398025#0 -1212506817#1 -747447018#1 -747447018#0 -747447017#3 -747447017#2 -747447017#1 -747447017#0 -1280079388#1 -747009417 -747854799#0 -747005528#1 135048805#1 135048805#2 1292168032 453672430 126310265 453672432#0 453672432#1 942479700 1067217032 4940313#1 -229492741#1 -229492741#0 -28553959#7 -28553959#6 -28553959#5 -28553959#3 -1411148250 28553544#8 28553554#0 28553554#1 28553554#2 28553554#4 -183688028#10 -183688028#9 -183688028#8 -183688028#7 -183688028#6 -183688028#5 -183688028#4 -183688028#3 -183688028#2 -183687544#0"/>
    </vehicle>
    <vehicle id="3" type="thesis_car" depart="6.00" departLane="best">
        <route edges="-28996941 -28996932#1 -28996932#0 -1433184313 -1092255860 -174398014#0 -28996820#6 -28996820#5 -28996820#4 -28996820#3 28997011#5 1411747049 1411747047 238981582#0 238981582#1 238981582#1-AddedOffRampEdge 4940288 748795286 747951006 1341838020#0 569219184 1341838019#0 1341838019#1 1341838019#2 748795299#0 748795299#1 139045450 139045450-AddedOffRampEdge 1298622263 619023262#0 -770814992 1302514926"/>
    </vehicle>
    <vehicle id="4" type="thesis_car" depart="8.00" departLane="best">
        <route edges="28539908 800671112#0 800671112#1 800671112#2 -28539974#0 28539702#9 28539702#10 28539702#11 747228988 747333148#0 747228984#1 747232923 747228976#1 425382120 27260016 27260016-AddedOffRampEdge 586359130#0 586359130#1 746811049#0 746811049#1 746981175#0 746981175#1 747854796 747854793 1436005548 747854794#0 747854794#1 135048805#1 135048805#2 1292168032 453672430 126310265 453672432#0 453672432#1 942479700 1067217032 4940313#1 -229492741#1 -229492741#0 -28553959#7 -28553959#6 -28553959#5 -28553959#3 -1411148250 28553544#8 28553554#0 28553554#1 28553554#2 28553554#4 -183688028#10 -183688028#9 -183688028#8 -183688028#7 -183688028#6 -183688028#5 -183688028#4 -183688028#3 -183688028#2 -183688028#1 -183689239#2 -183689239#1 -183689239#0 183689239#0 183689239#1 183689239#2"/>
    </vehicle>
    <vehicle id="5" type="thesis_car" depart="10.00" departLane="best">
        <route edges="-28996941 -28996932#1 -28996932#0 -1433184313 -1092255860 -174398014#0 -28996820#6 -28996820#5 -28996820#4 -28996820#3 28997011#5 1411747049 1411747047 238981582#0 238981582#1 238981582#1-AddedOffRampEdge 4940288 748795286 747951006 1341838020#0 1341838017 747951000#2 705074764 749853681 1071797939 705074770 29127362 746559634 705076646#1 705076645 705076644 705076639#0 223089274#1 23370476 27260193 -1065726171#1 -184852736#1 -184852736#0 1272650818 800662538#0 800662538#1 800662538#2 1362795132#0 23296751#0 23296751#1 -1008051258#4 -1008051258#3 -1008051258#2 23296773#1"/>
    </vehicle>
    <vehicle id="6" type="thesis_car" depart="12.00" departLane="best">
        <route edges="440588496#4 440588496#5 -1291573302 183688028#5 183688028#6 183688028#7 183688028#8 183688028#9 183688028#10 -28553554#4 -28553554#2 -28553554#1 -28553554#0 -28553544#8 894539396 28553959#3 28553959#5 28553959#6 28553959#7 229492741#0 229492741#1 4940313#2 4940313#3 4940313#4 747447032#0 747447032#1 746811872#1 746811872#2 453672431 746811873 622155130 1057272190 30794243 747335805 747228984#1 747232923 747228978#1 747228978#2 -1279816417 -746660481#0 -174398025#2 -174398025#0 -1212506817#1 -747853023#0 -749518015#0 -27260010 -749518016 -749508466#1 749508464#1 747951003#1 1341838017 747951000#2 705074764 749853681 1071797939 705074770 29127362 746559634 705076646#1 705076645 705076644 705076639#0 223089274#1 23370476 27260193 -1065726171#1 -184852736#1 -184852736#0 1272650818 800662538#0 800662538#1 1382245206#5 1272650816 -562908081 -1064386464"/>
    </vehicle>
    <vehicle id="7" type="thesis_car" depart="14.00" departLane="best">
        <route edges="425382118#0 208149433#1 248903714#1 744375114 568221031 744358481 744384953 744384952 248903712 744397363#0 744358478 744358477 744358476 29127552 744401172#0 705076640#1 705076643 425382125 568873737#0 568873737#1 746559636 29127361 746559635 24957185#0 24957185#1 705074769 705074768 29353862 569219184 1341838019#0 1341838019#1 1341838019#2 748795299#0 748795299#1 139045450 139045450-AddedOffRampEdge 1298622263 619023262#0 -770814992 28995163#9 28995163#10 28995163#11 28995751#2 -491362473#2 -491362473#1 28995806#2"/>
    </vehicle>
    <vehicle id="8" type="thesis_car" depart="16.00" departLane="best">
        <route edges="-745722762#0 745379681#1 744384955#0 705640585#1 1212474711 23395712#0 745521900 1212988287 705076640#1 705076643 425382125 568873737#0 568873737#1 746559636 29127361 746559635 24957185#0 24957185#1 705074769 705074768 29353862 569219184 1341838019#0 1341838019#1 1341838019#2 748795299#0 748795299#1 139045450 139045450-AddedOffRampEdge 1298622263 619023262#0 -770814992 28995163#9 28995163#10 28995163#11 28995751#2 28995751#3 -145087111#2 -145087111#1 -145087111#0 -23296777#3"/>
    </vehicle>
    <vehicle id="9" type="thesis_car" depart="18.00" departLane="best">
        <route edges="842050932 747232923 747228978#1 747228978#2 -1279816417 -746660481#0 -174398025#2 -174398025#0 -1212506817#1 -747853023#0 -749518015#0 -27260010 -749518016 -749508466#1 749508464#1 747217019#1 747217019#2 747217018#0 749514003#1 32906098#1 555335239#1 555335240#0 555335240#1 555335240#2 555335240#3 555335240#4 555335240#5 -586364750 -555335240#4 -555335240#3 -555335240#2"/>
    </vehicle>
    <vehicle id="10" type="thesis_car" depart="20.00" departLane="best">
        <route edges="586364754#1 -1433184313 -1092255860 -174398014#0 -28996820#6 -28996820#5 -28996820#4 -28996820#3 28997011#5 1411747049 1411747047 238981582#0 238981582#1 238981582#1-AddedOffRampEdge 4940288 748795286 747951006 1341838020#0 1341838017 747951000#2 705074764 749853681 1071797939 705074770 29127362 746559634 705076646#1 705076645 705076644 705076639#0 814837429#1 1212474710#0 746549789#1 746549788#0 1057384166#1 238383717#0 705638794#1 705638793#0 705640585#1 1212474711 23395712#0"/>
    </vehicle>
    <vehicle id="11" type="thesis_car" depart="22.00" departLane="best">
        <route edges="428836643#1 428836643#2 745055570#1 747005529#0 747854794#0 747854794#1 135048805#1 135048805#2 1292168032 453672430 27494627 33424707 619023263 -1274179998#0 28996820#3 28996820#4 28996820#5 28996820#6 174398014#0 174398014#1 174398012#1 -586364754#1 28996951"/>
    </vehicle>
    <vehicle id="12" type="thesis_car" depart="24.00" departLane="best">
        <route edges="23296741#0 23296741#1 770797810 226831895#0 226831895#1 896483082#0 896483082#1"/>
    </vehicle>
    <vehicle id="13" type="thesis_car" depart="26.00" departLane="best">
        <route edges="706539634#0 706539634#1 706539634#2 706539634#3 706539634#4 28997044#0 28997044#1 238981582#1 238981582#1-AddedOffRampEdge 4940288 748795286 747951006 1341838020#0 1341838017 747951000#2 705074764 749853681 1071797939 705074770 29127362 746559634 705076646#1 705076645 705076644 705076639#0 223089274#1 23370476 27260193 -1065726171#1 -184852736#1 -184852736#0 1272650818 800662538#0 800662538#1 800662538#2 1362795132#0 23296751#0 23296751#1 23296751#2"/>
    </vehicle>
    <vehicle id="14" type="thesis_car" depart="28.00" departLane="best">
        <route edges="28553959#3 28553959#5 28553959#6 28553959#7 229492741#0 229492741#1 4940313#2 4940313#3 4940313#4 747447032#0 747447032#1 746811872#1 746811872#2 453672431 746811873 622155130 1057272190 30794243 747335805 747228984#1 747232923 747228978#1 747228978#2 -1279816417 -746660481#0 -174398025#2 -174398025#0 -1212506817#1 -747853023#0 -749518015#0 -27260010 -749518016 -749508466#1 749508464#1 747951003#1 569219184 1341838019#0 1341838019#1 1341838019#2 748795299#0 748795299#1 139045450 139045450-AddedOffRampEdge 1298622263 619023262#0 619023262#1 770814991 215516160#0 215516153#1 28995163#4 -1281884999"/>
    </vehicle>
    <vehicle id="15" type="thesis_car" depart="30.00" departLane="best">
        <route edges="-28996951 586364754#1 -1433184313 -1092255860 -174398014#0 -28996820#6 -28996820#5 -28996992#2 -28996992#1 -28996992#0"/>
    </vehicle>
    <vehicle id="16" type="thesis_car" depart="32.00" departLane="best">
        <route edges="-174398025#0 -1212506817#1 -747447018#1 -747447018#0 -747447017#3 -747447017#2 -747447017#1 -747447017#0 -1280079388#1 -747009417 -747854799#0 -747005528#1 135048805#1 135048805#2 1292168032 453672430 126310265 453672432#0 453672432#1 942479700 1067217032 4940313#1 -229492741#1 -229492741#0 -28553959#7 -28553959#6 -28553959#5 -28553959#3 -1411148250 28553544#8 28553554#0 28553554#1 28553554#2 -28553756"/>
    </vehicle>
    <vehicle id="17" type="thesis_car" depart="34.00" departLane="best">
        <route edges="-23296745#1 23296745#1 561395729#2 29000484#0 -1008051258#0 -894172555 23296744#1 -23296743#3 -28996500#0"/>
    </vehicle>
    <vehicle id="18" type="thesis_car" depart="36.00" departLane="best">
        <route edges="28539454 354718302#4 354718302#5 354718302#6 711231847#2 711231847#3 711231847#4 822062850#0 822062850#1 711231844#1 204841602#2 204841602#3 204841602#4 1057272191#0 339318044#0 339318044#1 622155130 1057272190 30794243 747335805 747228984#1 747232923 747228978#1 747228978#2 747228979 1328707416 747228982#1 747228981#1 747228980 744944961 744949906#1 174398023#1 174398023#2 174398023#3 -744999975#1"/>
    </vehicle>
    <vehicle id="19" type="thesis_car" depart="38.00" departLane="best">
        <route edges="-96487801#1 96487801#1 96487801#2 96487801#3 -747853030 -745062638#1 184852741#1 747853028#1 747447020#0 747447020#1 747447020#2 747853024#1 747853024#2 747853025#1 747853025#2 747853025#3 -747447018#1 -747447018#0 -747447017#3 -747447017#2 -747447017#1 -747447017#0 -1280079388#1 -747009417 -747854799#0 -747005528#1 135048805#1 135048805#2 1292168032 453672430 126310265 453672432#0 453672432#1 942479700 1067217032 4940313#1 -229492741#1 -229492741#0 -28553959#7 -28553959#6 -28553959#5 -28553959#3 -1411148250 28553544#8 28553554#0 28553554#1 28553554#2 28553554#4 -183688028#10 -183688028#9 -183688028#8 -28553592"/>
    </vehicle>
    <vehicle id="20" type="thesis_car" depart="40.00" departLane="best">
        <route edges="-354718285 241489940#1 241489940#2 28539915#0 28539915#1 28539915#2 28539915#3 -28539946#0 28539702#3 28539702#4 28539702#5 28539702#6 28539702#7 28539702#8 28539702#9 28539702#10 28539702#11 747228988 747333148#0"/>
    </vehicle>
    <vehicle id="21" type="thesis_car" depart="42.00" departLane="best">
        <route edges="28539908 800671112#0 800671112#1 800671112#2 800671112#3 800671112#4 800671112#5 800671112#6 800671112#7 800671112#8 800671112#9 800671112#10 800671112#11 800671112#12 800671112#13 -987614114#0 267646774"/>
    </vehicle>
    <vehicle id="22" type="thesis_car" depart="44.00" departLane="best">
        <route edges="-28553554#7 -28553554#5 -28553554#4 -28553554#2 -28553554#1 -28553554#0 -28553544#8 894539396 28553959#3 28553959#5 28553959#6 28553959#7 229492741#0 229492741#1 4940313#2 4940313#3 4940313#4 747447032#0 747447032#1 746811872#1 746811872#2 453672431 746811873 622155130 1057272190 30794243 747335805 747228984#1 747232923 747228978#1 747228978#2 -1279816417 -746660481#0 -174398025#2 -174398025#0 -1212506817#1 -747853023#0 -749518015#0 -27260010 -749518016 -749508466#1 749508464#1 747217019#1 747217019#2 747217018#0 749514003#1 749514001#1 1292171259 1292171261 1292171262 1292171263 1292171264 1292171266 1292171267 174398009#0 174398009#1 174398012#0 174398012#1 -586364754#1 28996951"/>
    </vehicle>
    <vehicle id="23" type="thesis_car" depart="46.00" departLane="best">
        <route edges="-28539974#1 -28539974#0 28539702#9 28539702#10 28539702#11 747228988 747333148#0 747228984#1 747232923 747228978#1 747228978#2 -1279816417 -746660481#0 -174398025#2 -174398025#0 -1212506817#1 -747853023#0 -749518015#0 -27260010 -749518016 -749508466#1 749508464#1 747217019#1 747217019#2 747217018#0 749514003#1 749514001#1 1292171259 1292171261 1292171262 1292171263 1292171264 1292171266 1292171267 174398009#0 174398009#1 174398009#2 -1292171267 -1292171266 -1292171264 -1292171263 -1292171262 -1292171261 -32906100 -749514001#1"/>
    </vehicle>
    <vehicle id="24" type="thesis_car" depart="48.00" departLane="best">
        <route edges="945694571#1 945694571#2 814837399#1 814837416#1 945694569#1 747175703#0 747175704#1 745542369#1 750563077 749858672#1 744649710 1212501346 744645404#1 51355540#1 744944963#1 744944967#1 744944962#0 747228971#1 747228973#1 747228973#2 1279816416 747232921#0 747228976#1 425382120 27260016 27260016-AddedOffRampEdge 1057272189 30794243 747335805 -747333148#0 -747228988 28539973 800671112#0 800671112#1 800671112#2 800671112#3 800671112#4 800671112#5 800671112#6 800671112#7 800671112#8 800671112#9 800671112#10 800671112#11 800671112#12 800671112#13 -987614114#0 -272735306#4 -272735306#3 -272735306#0 -1289152445 28539263#1"/>
    </vehicle>
    <vehicle id="25" type="thesis_car" depart="50.00" departLane="best">
        <route edges="23296750 902648103 184852736#1 1065726171#1 1065726171#2 24537254 814837428 25006622 568874018#0 568874018#2 1212986029#0 705076640#1 705076643 425382125 568873737#0 568873737#1 746559636 29127361 746559635 24957185#0 24957185#1 705074769 705074768 29353862 746559629 747217019#1 747217019#2 747217018#0 749514003#1 32906098#1 747856742#1 32906108#0 32906108#1 745055567#1 747854798#0 -747005528#1 135048805#1 135048805#2 1292168032 453672430 126310265 453672432#0 453672432#1 942479700 1067217032 4940313#1 -229492741#1 -229492741#0 -28553959#7 -28553959#6 -28553959#5 -28553959#3 -1411148250 28553544#8 28553554#0 28553554#1 28553554#2 28553554#4 -183688028#10 -183688028#9 -183688028#8 -183688028#7 -183688028#6 -183688028#5 -183688028#4 -183688028#3 -183688028#2 -183688028#1 -183688028#0 28553661#0 28553661#2 28553661#3 897749474#1 28554097#1 28554097#2"/>
    </vehicle>
    <vehicle id="26" type="thesis_car" depart="52.00" departLane="best">
        <route edges="586354144#0 -28553819 -339540802#1 28553902 -28553906 -28553554#0 -28553544#8 894539396 28553959#3 28553959#5 28553959#6 28553959#7 229492741#0 229492741#1 4940313#2 4940313#3 4940313#4 747447032#0 747447032#1 746811872#1 746811872#2 453672431 746811873 1271657634#1 135048801#0 135048801#1 135048803#1 135048803#2 135048803#3 135048803#4 135048803#5 135048803#6 705065740#0 705065740#1 568142846#0 568142846#1 822062850#0 822062850#1 711231844#1 204841602#2 204841602#3 204841602#4 1057272191#0 339318044#0"/>
    </vehicle>
    <vehicle id="27" type="thesis_car" depart="54.00" departLane="best">
        <route edges="-586364755 -28996932#2 -28996932#1 -28996932#0 -1433184313 -1092255860 -174398014#0 -28996820#6 -28996820#5 -28996820#4 -28996820#3 28997011#5 1411747049 1411747047 238981582#0 238981582#1 238981582#1-AddedOffRampEdge 4940288 748795286 747951006 1341838020#0 569219184 1341838019#0 1341838019#1 1341838019#2 748795299#0 748795299#1 139045450 139045450-AddedOffRampEdge 1298622263 619023262#0 -770814992 28995163#9 28995163#10 28995163#11 -28995751#1 -28995751#0"/>
    </vehicle>
    <vehicle id="28" type="thesis_car" depart="56.00" departLane="best">
        <route edges="744375110#1 4940254#1 1341806867 208149441#0 1337669118#1 1337669118#2 705638349#0 705638794#1 705638793#0 705640585#1 1212474711 23395712#0 745521900 1212988287 705076640#1 705076643 425382125 568873737#0 568873737#1 746559636 29127361 746559635 24957185#0 24957185#1 705074769 705074768 29353862 746559629 747217019#1 747217019#2 747217018#0 749514003#1 749514001#1 1292171259 1292171261 1292171262 1292171263 1292171264 1292171266 1292171267 174398009#0 174398009#1 174398009#2 -1292171267 -1292171266 -1292171264 -1292171263 -1292171262 -1292171261 -32906100"/>
    </vehicle>
    <vehicle id="29" type="thesis_car" depart="58.00" departLane="best">
        <route edges="28539973 800671112#0 800671112#1 800671112#2 -28539974#0 28539702#9 28539702#10 28539702#11 747228988 747333148#0 747228984#1 747232923 747228976#1 425382120 27260016 27260016-AddedOffRampEdge 586359130#0 586359130#1 746811049#0 746811049#1 746981175#0 746981175#1 747854796 747854793 1436005548 747854794#0 747854794#1 135048805#1 135048805#2 1292168032 453672430 126310265 453672432#0 453672432#1 942479700 1067217032 4940313#1 -229492741#1 -229492741#0 -28553959#7 -28553959#6 -28553959#5 -28553941#2 -28553544#5 -894467050#1 -894467050#0"/>
    </vehicle>
    <vehicle id="30" type="thesis_car" depart="60.00" departLane="best">
        <route edges="-354718285 241489940#1 800671112#7 800671112#8 800671112#9 800671112#10 800671112#11 800671112#12 800671112#13 -987614114#0 -272735306#4 -272735306#3 -272735306#0 -272735305#0 -28539575#2 -28539575#1 126310263 948928079#1 1057272193#0 1057272193#1 1057272193#2 1057272193#3 1057272193#5 711231847#0 711231847#1 711231847#2 711231847#3 711231847#4 822062850#0 822062850#1 711231844#1 204841602#2 204841602#3 204841602#4 1057272191#0 339318044#0 339318044#1 746791797 746811049#0 746811049#1 746981175#0 746981175#1 747854796 747854793 1436005548 747854794#0 747854794#1 135048805#1 135048805#2 1292168032 453672430 126310265 453672432#0 453672432#1 942479700 1067217032 4940313#1 -229492741#1 -229492741#0 -28553959#7 -28553959#6 -28553959#5 -28553959#3 -1411148250 28553544#8 28553554#0 28553554#1 28553554#2 28553554#4 -183688028#10 -183688028#9 -183688028#8 -183688028#7 -183688028#6 -183688028#5 -183688028#4 -183688028#3 -183688028#2 -183688028#1 -183688028#0 28553661#0 28553661#2 28553661#3 897749474#1 -28554097#0"/>
    </vehicle>
    <vehicle id="31" type="thesis_car" depart="62.00" departLane="best">
        <route edges="984799393 918505400 24537254 814837428 25006622 568874018#0 568874018#2 1212986029#0 705076640#1 705076643 425382125 568873737#0 568873737#1 746559636 29127361 746559635 24957185#0 24957185#1 705074769 705074768 29353862 746559629 747217019#1 747217019#2 747217018#0 749514003#1 32906098#1 747856742#1 747009416#0 747009416#1 747009416#2 -747009417 745055568#1 745055569#1 1321735225"/>
    </vehicle>
    <vehicle id="32" type="thesis_car" depart="64.00" departLane="best">
        <route edges="-215516157 215516157 -1281884999"/>
    </vehicle>
    <vehicle id="33" type="thesis_car" depart="66.00" departLane="best">
        <route edges="-23296751#2 -1008051258#4 -1008051258#3 -1008051258#2 -1008051258#1 -1008051258#0 -894172555 23296744#1 -23296743#3 -23296743#2 -23296743#1 -23296743#0 226831894#2 226831894#3 770797810 226831895#0 226831895#1 145087111#0 145087111#1 145087111#2 1263432701 770797793 313048179#4 313048179#5 619023262#0 619023262#1 619023262#2 154878302 27494654"/>
    </vehicle>
    <vehicle id="34" type="thesis_car" depart="68.00" departLane="best">
        <route edges="354718282 -272735306#3 -272735306#0 -272735305#0 -28539575#2 -28539575#1 126310263 948928079#1 1057272193#0 1057272193#1 1057272193#2 1057272193#3 1057272193#5 711231847#0 711231847#1 711231847#2 711231847#3 711231847#4 822062850#0 822062850#1 711231844#1 204841602#2 204841602#3 204841602#4 1057272191#0 339318044#0 339318044#1 622155130 1057272190 30794243 747335805 747228984#1 747232923 747228978#1 747228978#2 -1279816417 -746660481#0 -174398025#2 -174398025#0 -1212506817#1 -747853023#0 -749518015#0 -27260010 -749518016 -749508466#1 749508464#1 747951003#1 1341838017 747951000#2 705074764 749853681 1071797939 705074770 29127362 746559634 705076646#1 705076645 705076644 705076639#0 223089274#1 23370476 27260193 -1065726171#1 -184852736#1 -184852736#0 1272650818 800662538#0 800662538#1 800662538#2 1362795132#0 23296751#0 23296751#1 1008051258#5"/>
    </vehicle>
    <vehicle id="35" type="thesis_car" depart="70.00" departLane="best">
        <route edges="984799393 918505400 24537254 814837428 25006622 568874018#0 568874018#2 1212986029#0 705076640#1 705076643 425382125 568873737#0 568873737#1 746559636 29127361 746559635 24957185#0 24957185#1 705074769 705074768 29353862 569219184 1341838019#0 1341838019#1 1341838019#2 748795299#0 748795299#1 139045450 139045450-AddedOffRampEdge 1298622263 619023262#0 -770814992 28995163#9 28995163#10 28995163#11 28995751#2 28995751#3 -145087111#2 -145087111#1 -145087111#0 -226831895#1 145087237#0 145087237#1"/>
    </vehicle>
    <vehicle id="36" type="thesis_car" depart="72.00" departLane="best">
        <route edges="-1065726171#1 1065726171#1 1065726171#2 24537254 814837428 25006622 568874018#0 568874018#2 1212986029#0 705076640#1 705076643 425382125 568873737#0 568873737#1 746559636 29127361 746559635 24957185#0 24957185#1 705074769 705074768 29353862 746559629 747217019#1 747217019#2 747217018#0 749514003#1 749514001#1 1292171259 1292171261 1292171262 1292171263 1292171264 1292171266 1292171267 174398009#0 174398009#1 174398012#0 174398012#1 28996932#0 28996932#1 28996941"/>
    </vehicle>
    <vehicle id="37" type="thesis_car" depart="74.00" departLane="best">
        <route edges="28553629 183688028#5 183688028#6 183688028#7 183688028#8 183688028#9 183688028#10 -28553554#4 -28553554#2 -28553554#1 -28553554#0 -28553544#8 894539396 28553959#3 28553959#5 28553959#6 28553959#7 229492741#0 229492741#1 4940313#2 4940313#3 4940313#4 747447032#0 747447032#1 746811872#1 746811872#2 453672431 746811873 622155130 1057272190 30794243 747335805 747228984#1 747232923 747228978#1 747228978#2 747228979 1328707416 747228982#1 747228981#1 747228980 744949907 744944964 569215926 27788646#0 27788646#1 27788646#2 27788646#3 51355539#0 32906172#1 750570769#0 750570769#1 745542368#0 747175707#1 747175705#0 23395714#1 945694568#1 945694571#0 945694571#1 945694571#2 38414022#1 744375117 35062152#0 35062147#1 744358487 4940188#0 156578061#0 156578061#1 156578061#2 156578061#4"/>
    </vehicle>
    <vehicle id="38" type="thesis_car" depart="76.00" departLane="best">
        <route edges="-354718285 241489940#1 800671112#7 800671112#8 800671112#9 800671112#10 800671112#11 800671112#12 800671112#13 -987614114#0 -272735306#4 -272735306#3 -272735306#0 -272735305#0 -1289152450#1 28539493#0 28539493#1"/>
    </vehicle>
    <vehicle id="39" type="thesis_car" depart="78.00" departLane="best">
        <route edges="-23296751#2 -23296751#1 1382245206#4 1382245206#5 -23296749 -894808670 1064374314#0 1064374314#1"/>
    </vehicle>
    <vehicle id="40" type="thesis_car" depart="80.00" departLane="best">
        <route edges="1341838025 747937849 569219184 1341838019#0 1341838019#1 1341838019#2 748795299#0 748795299#1 139045450 139045450-AddedOffRampEdge 1298622263 619023262#0 -770814992 28995163#9 28995163#10 28995776 770797793"/>
    </vehicle>
    <vehicle id="41" type="thesis_car" depart="82.00" departLane="best">
        <route edges="744375106#1 1212440752 4940251 568221031 744358481 744384953 744384952 248903712 744397363#0 744358478 744358477 744358476 29127552 744401172#0 705076640#1 705076643 425382125 568873737#0 568873737#1 746559636 29127361 746559635 24957185#0 24957185#1 705074769 705074768 29353862 569219184 1341838019#0 1341838019#1 1341838019#2 748795299#0 748795299#1 139045450 139045450-AddedOffRampEdge 1298622263 619023262#0 -770814992 28995163#9 -28995669"/>
    </vehicle>
    <vehicle id="42" type="thesis_car" depart="84.00" departLane="best">
        <route edges="184731538 183688028#10 -28553554#4 -28553554#2 -28553554#1 -28553554#0 -28553544#8 894539396 28553959#3 28553959#5 28553959#6 28553959#7 229492741#0 229492741#1 4940313#2 4940313#3 4940313#4 747447032#0 747447032#1 746811872#1 746811872#2 453672431 746811873 1271657634#1 135048801#0 135048801#1 135048803#1 135048803#2 135048803#3 135048803#4 135048803#5 135048803#6 705065740#0 705065740#1 568142846#0 568142846#1 568142851#0 568142851#1 568142851#2 568142851#3 568142851#4 1057272192#0 1057272192#1 1057272192#2 27274182#0 28535728#0 -27274191#3"/>
    </vehicle>
    <vehicle id="43" type="thesis_car" depart="86.00" departLane="best">
        <route edges="747228982#1 747228973#1 747228973#2 1279816416 747232921#0 747228976#1 425382120 27260016 27260016-AddedOffRampEdge 1057272189 30794243 747335805 -747333148#0 -747228988 28539973 800671112#0 800671112#1 800671112#2 800671112#3 800671112#4 800671112#5 800671112#6 800671112#7 800671112#8 800671112#9 800671112#10 800671112#11 800671112#12 800671112#13 -987614114#0 28539739#0 28539739#1 28539739#2 586371499"/>
    </vehicle>
    <vehicle id="44" type="thesis_car" depart="88.00" departLane="best">
        <route edges="-586354143 -1214459846 -339540802#3 -339540802#2 -339540802#1 28553902 -28553906 -28553554#0 -28553544#8 894539396 28553959#3 28553959#5 28553959#6 28553959#7 229492741#0 229492741#1 4940313#2 4940313#3 4940313#4 747447032#0 747447032#1 746811872#1 746811872#2 453672431 746811873 622155129 28537229#0 28537229#1"/>
    </vehicle>
    <vehicle id="45" type="thesis_car" depart="90.00" departLane="best">
        <route edges="27274189#0 27274189#1 27274189#2 27274189#3 1226153897#1 1057272193#0 1057272193#1 1057272193#2 1057272193#3 1057272193#5 711231847#0 711231847#1 711231847#2 711231847#3 711231847#4 822062850#0 822062850#1 711231844#1 204841602#2 204841602#3 204841602#4 1057272191#0 339318044#0 339318044#1 622155130 1057272190 30794243 747335805 747228984#1 747232923 747228978#1 747228978#2 -1279816417 -746660481#0 -174398025#2 -174398025#0 -1212506817#1 -747853023#0 -749518015#0 -27260010 -749518016 -749508466#1 749508464#1 747951003#1 1341838017 747951000#2 705074764 749853681 1071797939 705074770 29127362 746559634 705076646#1 705076645 705076644 705076639#0 223089274#1 23370476 27260193 -1065726171#1 -184852736#1 -184852736#0 1272650818 800662538#0 800662538#1 800662538#2 1362795132#0 1362795132#1 1362795132#3 1362795132#4 1072980033#0 1072980033#1 101476578#1 101476578#2 101476578#3 -23296768#0"/>
    </vehicle>
    <vehicle id="46" type="thesis_car" depart="92.00" departLane="best">
        <route edges="28997018#0 -28996820#3 28997011#5 1411747049 1411747047 238981582#0 238981582#1 238981582#1-AddedOffRampEdge 4940288 748795286 747951006 1341838020#0 1341838023 174398016#1"/>
    </vehicle>
    <vehicle id="47" type="thesis_car" depart="94.00" departLane="best">
        <route edges="313048179#1 313048179#2 313048179#3 -770797793 -28995776 28995163#11 28995751#2 28995751#3 -145087111#2 -145087111#1 -145087111#0 -226831895#1 145087237#0 145087237#1"/>
    </vehicle>
    <vehicle id="48" type="thesis_car" depart="96.00" departLane="best">
        <route edges="744614382#0 30446164#1 744620962#1 690148299 744620961#0 690148298#1 31764601#1 744632164#1 744632165#1 1212501347#0 744645401#1 747939435 747939432 744645402#1 747951018 1341838025 747937849 569219184 1341838019#0 1341838019#1 1341838019#2 748795299#0 748795299#1 139045450 139045450-AddedOffRampEdge 1298622263 619023262#0 -770814992 28995163#9 28995163#10 28995163#11 28995751#2 -491362473#2 555334774"/>
    </vehicle>
    <vehicle id="49" type="thesis_car" depart="98.00" departLane="best">
        <route edges="-586361756#1 -28553544#8 894539396 28553959#3 28553959#5 28553959#6 28553959#7 229492741#0 229492741#1 4940313#2 4940313#3 4940313#4 747447032#0 747447032#1 746811872#1 746811872#2 453672431 746811873 1271657634#1 135048801#0 135048801#1 135048803#1 135048803#2 135048803#3 135048803#4 135048803#5 135048803#6 -1354862882"/>
    </vehicle>