<additional>
    <vType id="thesis_car" vClass="passenger" emissionClass="HBEFA3/PC_G_EU4" accel="2.6" decel="4.5" sigma="0.5" length="4.5" minGap="2.5" maxSpeed="50" color="1,0.8,0"/>
</additional>