<?xml version="1.0" encoding="UTF-8"?>

<!-- generated on 2026-02-06T17:51:32.978289+08:00 by Eclipse SUMO marouter 1.25.0
<marouterConfiguration xmlns:xsi="http://www.w3.org/2001/XMLSchema-instance" xsi:noNamespaceSchemaLocation="http://sumo.dlr.de/xsd/marouterConfiguration.xsd">

    <input>
        <net-file value="c:\Users\otaku\Documents\Thesis\apriori_civiq\scenarios\bgc_full\final_map.net.xml"/>
        <route-files value="c:\Users\otaku\Documents\Thesis\apriori_civiq\scenarios\bgc_full\trips_high.xml"/>
    </input>

    <output>
        <output-file value="c:\Users\otaku\Documents\Thesis\apriori_civiq\scenarios\bgc_full\wardrop_routes.rou.xml"/>
    </output>

    <processing>
        <max-alternatives value="5"/>
        <assignment-method value="UE"/>
    </processing>

    <report>
        <verbose value="true"/>
        <ignore-errors value="true"/>
    </report>

</marouterConfiguration>
-->

<routes xmlns:xsi="http://www.w3.org/2001/XMLSchema-instance" xsi:noNamespaceSchemaLocation="http://sumo.dlr.de/xsd/routes_file.xsd">
    <vehicle id="0" type="thesis_car" depart="0.00" departLane="best" departSpeed="max">
        <routeDistribution>
            <route cost="191.01" probability="0.33551278" edges="28539954#0 800671112#9 800671112#10 -28539946#1 -28539946#0 28539702#3 28539702#4 28539702#5 28539702#6 28539702#7 28539702#8 28539702#9 28539702#10 28539702#11 747228988 747333148#0 747228984#1 747232923 747228978#1 747228978#2 -1279816417 -746660481#0 -174398025#2 -174398025#0 -1212506817#1 -747853023#0 -749518015#0 -27260010 -749518016 -749508466#1 749508464#1 747951003#1 569219184 1341838019#0 1341838019#1 1341838019#2 748795299#0 748795299#1 139045450 139045450-AddedOffRampEdge 1298622263 619023262#0 619023262#1 770814991 215516160#0 215516153#1 -28995163#3 -28995163#0 -1072176585"/>
            <route cost="193.28" probability="0.32801069" edges="28539954#0 28539954#1 28539915#2 28539915#3 -28539946#0 28539702#3 28539702#4 28539702#5 28539702#6 28539702#7 28539702#8 28539702#9 28539702#10 28539702#11 747228988 747333148#0 747228984#1 747232923 747228978#1 747228978#2 747228979 1328707416 747228982#1 747228981#1 747228980 744949907 744944964 569215926 27788646#0 27788646#1 27788646#2 27788646#3 51355539#0 749858672#1 744649710 1212501346 744645401#1 747939435 747939432 744645402#1 747951018 1341838025 747937849 569219184 1341838019#0 1341838019#1 1341838019#2 748795299#0 748795299#1 139045450 139045450-AddedOffRampEdge 1298622263 619023262#0 619023262#1 770814991 215516160#0 215516160#1 -28995241 -28995163#0 -1072176585"/>
            <route cost="190.72" probability="0.33647652" edges="28539954#0 28539954#1 28539915#2 28539915#3 -28539946#0 28539702#3 28539702#4 28539702#5 28539702#6 28539702#7 28539702#8 28539702#9 28539702#10 28539702#11 747228988 747333148#0 747228984#1 747232923 747228978#1 747228978#2 -1279816417 -746660481#0 -174398025#2 -174398025#0 -1212506817#1 -747853023#0 -749518015#0 -27260010 -749518016 -749508466#1 749508464#1 747951003#1 569219184 1341838019#0 1341838019#1 1341838019#2 748795299#0 748795299#1 139045450 139045450-AddedOffRampEdge 1298622263 619023262#0 619023262#1 770814991 215516160#0 215516153#1 -28995163#3 -28995163#0 -1072176585"/>
        </routeDistribution>
    </vehicle>
    <vehicle id="1" type="thesis_car" depart="0.75" departLane="best" departSpeed="max">
        <routeDistribution>
            <route cost="228.87" probability="0.33193762" edges="28996820#1 28996820#2 28996820#3 28996820#4 28996820#5 28996820#6 174398014#0 174398014#1 -174398012#0 174398009#2 -1292171267 -1292171266 -1292171264 -1292171263 -1292171262 -1292171261 -32906100 -749514001#1 32906098#1 747856742#1 32906108#0 32906108#1 745055567#1 747854798#0 -747005528#1 135048805#1 135048805#2 1292168032 453672430 126310265 453672432#0 453672432#1 942479700 1067217032 4940313#1 -229492741#1 -229492741#0 -28553959#7 -28553959#6 -28553959#5 -28553941#2 28553544#6 28553544#7 28553544#8 28553554#0 28553554#1 28553554#2 28553554#4 -183688028#10 -183688028#9 -183688028#8 -183688028#7 -183688028#6 -183688028#5 -183688028#4 -183688028#3 -183688028#2 -183688028#1 -183688028#0 28553661#0 28553661#2 28553661#3 897749474#1 28554097#1 28554097#2"/>
            <route cost="228.58" probability="0.33281476" edges="28996820#1 28997044#1 238981582#1 238981582#1-AddedOffRampEdge 4940288 748795286 747951006 1341838020#0 1341838023 174398016#1 749520368#1 748795306 184852741#1 747853028#1 747447020#0 747447020#1 747447020#2 747853024#1 747853024#2 747853025#1 747853025#2 747853025#3 -747447018#1 -747447018#0 -747447017#3 -747447017#2 -747447017#1 -747447017#0 -1280079388#1 -747009417 -747854799#0 -747005528#1 135048805#1 135048805#2 1292168032 453672430 126310265 453672432#0 453672432#1 942479700 1067217032 4940313#1 -229492741#1 -229492741#0 -28553959#7 -28553959#6 -28553959#5 -28553959#3 -1411148250 28553544#8 28553554#0 28553554#1 28553554#2 28553554#4 -183688028#10 -183688028#9 -183688028#8 -183688028#7 -183688028#6 -183688028#5 -183688028#4 -183688028#3 -183688028#2 -183688028#1 -183688028#0 28553661#0 28553661#2 28553661#3 897749474#1 28554097#1 28554097#2"/>
            <route cost="227.85" probability="0.33524762" edges="28996820#1 28997044#1 238981582#1 238981582#1-AddedOffRampEdge 4940288 748795286 747951006 1341838020#0 1341838023 174398016#1 749520368#1 748795306 184852741#1 747853028#1 747447020#0 747447020#1 747447020#2 747853024#1 747853024#2 747853025#1 747853025#2 747853025#3 -747447018#1 -747447018#0 -747447017#3 -747447017#2 -747447017#1 -747447017#0 -1280079388#1 -747009417 -747854799#0 -747005528#1 135048805#1 135048805#2 1292168032 453672430 126310265 453672432#0 453672432#1 942479700 1067217032 4940313#1 -229492741#1 -229492741#0 -28553959#7 -28553959#6 -28553959#5 -28553941#2 28553544#6 28553544#7 28553544#8 28553554#0 28553554#1 28553554#2 28553554#4 -183688028#10 -183688028#9 -183688028#8 -183688028#7 -183688028#6 -183688028#5 -183688028#4 -183688028#3 -183688028#2 -183688028#1 -183688028#0 28553661#0 28553661#2 28553661#3 897749474#1 28554097#1 28554097#2"/>
        </routeDistribution>
    </vehicle>
    <vehicle id="2" type="thesis_car" depart="1.50" departLane="best" departSpeed="max">
        <routeDistribution>
            <route cost="168.73" probability="0.49161555" edges="745055616#1 1279816416 747232921#0 747228976#1 425382120 -746807318#0 -745055575#2 -745055575#1 745055571#1 747854796 747854793 1436005548 747854794#0 747854794#1 135048805#1 135048805#2 1292168032 453672430 126310265 453672432#0 453672432#1 942479700 1067217032 4940313#1 -229492741#1 -229492741#0 -28553959#7 -28553959#6 -28553959#5 -28553959#3 -1411148250 28553544#8 28553554#0 28553554#1 28553554#2 28553554#4 -183688028#10 -183688028#9 -183688028#8 -183688028#7 -183688028#6 -183688028#5 -183688028#4 -183688028#3 -183688028#2 -183688028#1 -183689239#2 -183689239#1 -183689239#0"/>
            <route cost="165.37" probability="0.50838445" edges="745055616#1 -1279816417 -746660481#0 -174398025#2 -174398025#0 -1212506817#1 -747447018#1 -747447018#0 -747447017#3 -747447017#2 -747447017#1 -747447017#0 -1280079388#1 -747009417 -747854799#0 -747005528#1 135048805#1 135048805#2 1292168032 453672430 126310265 453672432#0 453672432#1 942479700 1067217032 4940313#1 -229492741#1 -229492741#0 -28553959#7 -28553959#6 -28553959#5 -28553941#2 28553544#6 28553544#7 28553544#8 28553554#0 28553554#1 28553554#2 28553554#4 -183688028#10 -183688028#9 -183688028#8 -183688028#7 -183688028#6 -183688028#5 -183688028#4 -183688028#3 -183688028#2 -183688028#1 -183689239#2 -183689239#1 -183689239#0"/>
        </routeDistribution>
    </vehicle>
    <vehicle id="3" type="thesis_car" depart="2.25" departLane="best" departSpeed="max">
        <routeDistribution>
            <route cost="39.42" probability="1.00000000" edges="1292171266 1292171267 174398009#0 174398009#1 174398012#0 -1092255860 -174398014#0 -1278655004"/>
        </routeDistribution>
    </vehicle>
    <vehicle id="4" type="thesis_car" depart="3.00" departLane="best" departSpeed="max">
        <routeDistribution>
            <route cost="148.27" probability="0.49241556" edges="-28996987#4 897106072#1 28997044#0 28997044#1 238981582#1 238981582#1-AddedOffRampEdge 4940288 748795286 747951006 1341838020#0 1341838017 747951000#2 705074764 749853681 1071797939 705074770 29127362 746559634 705076646#1 705076645 705076644 705076639#0 223089274#1 23370476 27260193 -1065726171#1 -1065726171#0 -226831899#2 -226831899#1 29001191#0 29001191#1 797810631 800662538#0 800662538#1 800662538#2 1362795132#0 1362795132#1 1362795132#3 1362795132#4"/>
            <route cost="145.23" probability="0.50758444" edges="-28996987#4 897106072#1 28997044#0 28997044#1 238981582#1 238981582#1-AddedOffRampEdge 4940288 748795286 747951006 1341838020#0 1341838017 747951000#2 705074764 749853681 1071797939 705074770 29127362 746559634 705076646#1 705076645 705076644 705076639#0 223089274#1 23370476 27260193 -1065726171#1 -184852736#1 -184852736#0 1272650818 800662538#0 800662538#1 800662538#2 1362795132#0 1362795132#1 1362795132#3 1362795132#4"/>
        </routeDistribution>
    </vehicle>
    <vehicle id="5" type="thesis_car" depart="3.75" departLane="best" departSpeed="max">
        <routeDistribution>
            <route cost="210.86" probability="0.49385521" edges="28553544#0 28553544#1 28553544#2 28553544#3 28553544#5 28553941#2 28553959#5 28553959#6 28553959#7 229492741#0 229492741#1 4940313#2 4940313#3 4940313#4 747447032#0 747447032#1 746811872#1 746811872#2 453672431 746811873 622155130 1057272190 30794243 747335805 747228984#1 747232923 747228978#1 747228978#2 747228979 1328707416 747228982#1 747228981#1 747228980 744949907 744944964 569215926 27788646#0 27788646#1 27788646#2 27788646#3 51355539#0 749858672#1 744649710 1212501346 744645401#1 747939435 747939432 744645402#1 747951018 1341838025 747937849 569219184 1341838019#0 1341838019#1 1341838019#2 748795299#0 748795299#1 139045450 139045450-AddedOffRampEdge 1298622263 619023262#0 619023262#1 770814991 215516160#0 -215516155#1 215516157"/>
            <route cost="208.40" probability="0.50614479" edges="28553544#0 28553544#1 28553544#2 28553544#3 28553544#5 28553941#2 28553959#5 28553959#6 28553959#7 229492741#0 229492741#1 4940313#2 4940313#3 4940313#4 747447032#0 747447032#1 746811872#1 746811872#2 453672431 746811873 622155130 1057272190 30794243 747335805 747228984#1 747232923 747228978#1 747228978#2 -1279816417 -746660481#0 -174398025#2 -174398025#0 -1212506817#1 -747853023#0 -749518015#0 -27260010 -749518016 -749508466#1 749508464#1 747951003#1 569219184 1341838019#0 1341838019#1 1341838019#2 748795299#0 748795299#1 139045450 139045450-AddedOffRampEdge 1298622263 619023262#0 619023262#1 770814991 215516160#0 -215516155#1 215516157"/>
        </routeDistribution>
    </vehicle>
    <vehicle id="6" type="thesis_car" depart="4.50" departLane="best" departSpeed="max">
        <routeDistribution>
            <route cost="48.66" probability="0.49986498" edges="-28996992#3 -28996820#4 -28996820#3 28997011#5 1411747049 1411747047 238981582#0 238981582#1 238981582#1-AddedOffRampEdge 653015359 23370447"/>
            <route cost="48.61" probability="0.50013502" edges="-28996992#3 -28996820#4 -28996820#3 -28996820#2 28997044#1 238981582#1 238981582#1-AddedOffRampEdge 653015359 23370447"/>
        </routeDistribution>
    </vehicle>
    <vehicle id="7" type="thesis_car" depart="5.25" departLane="best" departSpeed="max">
        <routeDistribution>
            <route cost="120.28" probability="0.49241556" edges="461823738#0 461823738#1 461823738#3 23240436#0 23240436#1 23240436#2 1341806867 208149441#0 1337669118#1 1337669118#2 705638349#0 705638794#1 705638793#0 705640585#1 1212474711 23395712#0 745521900 1212988287 223089274#1 23370476 27260193 -1065726171#1 -1065726171#0 -226831899#2 -226831899#1 29001191#0 29001191#1 797810631 800662538#0 800662538#1 1382245206#5 1382245206#6 -23296752 -1064386464"/>
            <route cost="117.24" probability="0.50758444" edges="461823738#0 461823738#1 461823738#3 23240436#0 23240436#1 23240436#2 1341806867 208149441#0 1337669118#1 1337669118#2 705638349#0 705638794#1 705638793#0 705640585#1 1212474711 23395712#0 745521900 1212988287 223089274#1 23370476 27260193 -1065726171#1 -184852736#1 -184852736#0 1272650818 800662538#0 800662538#1 1382245206#5 1382245206#6 -23296752 -1064386464"/>
        </routeDistribution>
    </vehicle>
    <vehicle id="8" type="thesis_car" depart="6.00" departLane="best" departSpeed="max">
        <routeDistribution>
            <route cost="302.97" probability="0.33466180" edges="440588496#8 -183687544#1 183688028#2 183688028#3 183688028#4 183688028#5 183688028#6 183688028#7 183688028#8 183688028#9 183688028#10 -28553554#4 -28553554#2 -28553554#1 -28553554#0 -28553544#8 -28553544#7 -28553544#6 28553941#2 28553959#5 28553959#6 28553959#7 229492741#0 229492741#1 4940313#2 4940313#3 4940313#4 747447032#0 747447032#1 746811872#1 746811872#2 453672431 746811873 622155130 1057272190 30794243 747335805 747228984#1 747232923 747228978#1 747228978#2 -1279816417 -746660481#0 -174398025#2 -174398025#0 -1212506817#1 -747853023#0 -749518015#0 -27260010 -749518016 -749508466#1 749508464#1 747951003#1 569219184 1341838019#0 1341838019#1 1341838019#2 748795299#0 748795299#1 139045450 139045450-AddedOffRampEdge 1298622263 619023262#0 -770814992 28995163#9 28995163#10 28995163#11 28995751#2 -491362473#2 -491362473#1 -491362473#0 23296777#2 23296777#3 -226831895#1 -226831895#0 -770797810 -226831894#3 -226831894#2 -226831894#0 23296743#1 23296743#2 28996500#1 28996500#2"/>
            <route cost="305.57" probability="0.32608429" edges="440588496#8 -440588496#8 -440588496#7 -440588496#6 -440588496#5 -440588496#4 -440588496#3 -440588496#2 -440588496#1 -440588496#0 -28553554#10 -28553554#8 -28553554#7 -28553554#5 -28553554#4 -28553554#2 -28553554#1 -28553554#0 -28553544#8 894539396 28553959#3 28553959#5 28553959#6 28553959#7 229492741#0 229492741#1 4940313#2 4940313#3 4940313#4 747447032#0 747447032#1 746811872#1 746811872#2 453672431 746811873 622155130 1057272190 30794243 747335805 747228984#1 747232923 747228978#1 747228978#2 747228979 1328707416 747228982#1 747228981#1 747228980 744949907 744944964 569215926 27788646#0 27788646#1 27788646#2 27788646#3 51355539#0 749858672#1 744649710 1212501346 744645401#1 747939435 747939432 744645402#1 747951018 1341838025 747937849 569219184 1341838019#0 1341838019#1 1341838019#2 748795299#0 748795299#1 139045450 139045450-AddedOffRampEdge 1298622263 619023262#0 -770814992 28995163#9 28995163#10 28995163#11 28995751#2 28995751#3 -145087111#2 -145087111#1 -145087111#0 -226831895#1 -226831895#0 -770797810 -226831894#3 -226831894#2 -226831894#0 23296743#1 23296743#2 28996500#1 28996500#2"/>
            <route cost="301.60" probability="0.33925390" edges="440588496#8 -440588496#8 -440588496#7 -440588496#6 -440588496#5 -440588496#4 -440588496#3 -440588496#2 -440588496#1 -440588496#0 -28553554#10 -28553554#8 -28553554#7 -28553554#5 -28553554#4 -28553554#2 -28553554#1 -28553554#0 -28553544#8 -28553544#7 -28553544#6 28553941#2 28553959#5 28553959#6 28553959#7 229492741#0 229492741#1 4940313#2 4940313#3 4940313#4 747447032#0 747447032#1 746811872#1 746811872#2 453672431 746811873 622155130 1057272190 30794243 747335805 747228984#1 747232923 747228978#1 747228978#2 -1279816417 -746660481#0 -174398025#2 -174398025#0 -1212506817#1 -747853023#0 -749518015#0 -27260010 -749518016 -749508466#1 749508464#1 747951003#1 569219184 1341838019#0 1341838019#1 1341838019#2 748795299#0 748795299#1 139045450 139045450-AddedOffRampEdge 1298622263 619023262#0 -770814992 28995163#9 28995163#10 28995163#11 28995751#2 -491362473#2 -491362473#1 -491362473#0 23296777#2 23296777#3 -226831895#1 -226831895#0 -770797810 -226831894#3 -226831894#2 -226831894#0 23296743#1 23296743#2 28996500#1 28996500#2"/>
        </routeDistribution>
    </vehicle>
    <vehicle id="9" type="thesis_car" depart="6.75" departLane="best" departSpeed="max">
        <routeDistribution>
            <route cost="148.77" probability="0.49385521" edges="842050932 747232923 747228978#1 747228978#2 747228979 1328707416 747228982#1 747228981#1 747228980 744949907 744944964 569215926 27788646#0 27788646#1 27788646#2 27788646#3 51355539#0 749858672#1 744649710 1212501346 744645401#1 747939435 747939432 744645402#1 747951018 1341838025 747937849 569219184 1341838019#0 1341838019#1 1341838019#2 748795299#0 748795299#1 139045450 139045450-AddedOffRampEdge 1298622263 619023262#0 -770814992 28995163#9 28995163#10 28995163#11 28995751#2 -491362473#2 -491362473#1 -491362473#0"/>
            <route cost="146.31" probability="0.50614479" edges="842050932 747232923 747228978#1 747228978#2 -1279816417 -746660481#0 -174398025#2 -174398025#0 -1212506817#1 -747853023#0 -749518015#0 -27260010 -749518016 -749508466#1 749508464#1 747951003#1 569219184 1341838019#0 1341838019#1 1341838019#2 748795299#0 748795299#1 139045450 139045450-AddedOffRampEdge 1298622263 619023262#0 -770814992 28995163#9 28995163#10 28995163#11 28995751#2 -491362473#2 -491362473#1 -491362473#0"/>
        </routeDistribution>
    </vehicle>
    <vehicle id="10" type="thesis_car" depart="7.50" departLane="best" departSpeed="max">
        <routeDistribution>
            <route cost="55.17" probability="1.00000000" edges="622155128#0 622155128#1 135048801#0 135048801#1 135048803#1 135048803#2 135048803#3 135048803#4 135048803#5 135048803#6 705065740#0 705065740#1 568142846#0 568142846#1 568142851#0 568142851#1 568142851#2 568142851#3 568142851#4 1057272192#0 1057272192#1 1057272192#2 27274182#0"/>
        </routeDistribution>
    </vehicle>
    <vehicle id="11" type="thesis_car" depart="8.25" departLane="best" departSpeed="max">
        <routeDistribution>
            <route cost="137.79" probability="0.49914192" edges="459476433#1 459476433#2 745521900 1212988287 705076640#1 705076643 425382125 568873737#0 568873737#1 746559636 29127361 746559635 24957185#0 24957185#1 705074769 705074768 29353862 746559629 747217019#1 747217019#2 747217018#0 749514003#1 749514001#1 1292171259 1292171261 1292171262 1292171263 1292171264 1292171266 1292171267 174398009#0 174398009#1 174398012#0 -1092255860 -174398014#0 -28996820#6 -28996820#5 -28996820#4 -28996820#3 -28996820#2 -28997044#0 -897106072#1 28996987#4"/>
            <route cost="137.44" probability="0.50085808" edges="459476433#1 459476433#2 745521900 1212988287 705076640#1 705076643 425382125 568873737#0 568873737#1 746559636 29127361 746559635 24957185#0 24957185#1 705074769 705074768 29353862 746559629 747217019#1 747217019#2 747217018#0 749514003#1 749514001#1 1292171259 1292171261 1292171262 1292171263 1292171264 1292171266 1292171267 174398009#0 174398009#1 174398012#0 -1092255860 -174398014#0 -28996820#6 -28996820#5 -28996992#2 706539634#2 706539634#3 706539634#4 -897106072#1 28996987#4"/>
        </routeDistribution>
    </vehicle>
    <vehicle id="12" type="thesis_car" depart="9.00" departLane="best" departSpeed="max">
        <routeDistribution>
            <route cost="111.36" probability="2.00000000" edges="23296750 1272650818 800662538#0 800662538#1 800662538#2 1362795132#0 23296751#0 23296751#1 -1008051258#4 -1008051258#3 -1008051258#2 -1008051258#1 -1008051258#0 -894172555 23296744#1 -23296743#3 -23296743#2 -23296743#1 -23296743#0 226831894#2 226831894#3 770797810 226831895#0 226831895#1 896483082#0 896483082#1"/>
        </routeDistribution>
    </vehicle>
    <vehicle id="13" type="thesis_car" depart="9.75" departLane="best" departSpeed="max">
        <routeDistribution>
            <route cost="292.91" probability="0.49007235" edges="1071787530 183688028#0 183688028#1 183688028#2 183688028#3 183688028#4 183688028#5 183688028#6 183688028#7 183688028#8 183688028#9 183688028#10 -28553554#4 -28553554#2 -28553554#1 -28553554#0 -28553544#8 894539396 28553959#3 28553959#5 28553959#6 28553959#7 229492741#0 229492741#1 4940313#2 4940313#3 4940313#4 747447032#0 747447032#1 746811872#1 746811872#2 453672431 746811873 622155130 1057272190 30794243 747335805 747228984#1 747232923 747228978#1 747228978#2 747228979 1328707416 747228982#1 747228981#1 747228980 744949907 744944964 569215926 27788646#0 27788646#1 27788646#2 27788646#3 51355539#0 749858672#1 744649710 1212501346 744645401#1 747939435 747939432 744645402#1 747951018 1341838025 747937849 569219184 1341838019#0 1341838019#1 1341838019#2 748795299#0 748795299#1 139045450 139045450-AddedOffRampEdge 1298622263 619023262#0 -770814992 28995163#9 28995163#10 28995163#11 28995751#2 28995751#3 -145087111#2 -145087111#1 -145087111#0 -226831895#1 -226831895#0 -770797810 -226831894#3 -226831894#2 -226831894#0 23296743#1"/>
            <route cost="288.94" probability="0.50992765" edges="1071787530 183688028#0 183688028#1 183688028#2 183688028#3 183688028#4 183688028#5 183688028#6 183688028#7 183688028#8 183688028#9 183688028#10 -28553554#4 -28553554#2 -28553554#1 -28553554#0 -28553544#8 -28553544#7 -28553544#6 28553941#2 28553959#5 28553959#6 28553959#7 229492741#0 229492741#1 4940313#2 4940313#3 4940313#4 747447032#0 747447032#1 746811872#1 746811872#2 453672431 746811873 622155130 1057272190 30794243 747335805 747228984#1 747232923 747228978#1 747228978#2 -1279816417 -746660481#0 -174398025#2 -174398025#0 -1212506817#1 -747853023#0 -749518015#0 -27260010 -749518016 -749508466#1 749508464#1 747951003#1 569219184 1341838019#0 1341838019#1 1341838019#2 748795299#0 748795299#1 139045450 139045450-AddedOffRampEdge 1298622263 619023262#0 -770814992 28995163#9 28995163#10 28995163#11 28995751#2 -491362473#2 -491362473#1 -491362473#0 23296777#2 23296777#3 -226831895#1 -226831895#0 -770797810 -226831894#3 -226831894#2 -226831894#0 23296743#1"/>
        </routeDistribution>
    </vehicle>
    <vehicle id="14" type="thesis_car" depart="10.50" departLane="best" departSpeed="max">
        <routeDistribution>
            <route cost="96.82" probability="1.00000000" edges="561395729#0 561395729#1 561395729#2 29000484#0 -1008051258#0 -894172555 23296744#1 -23296743#3 -23296743#2 -23296743#1 -23296743#0 226831894#2 226831894#3 770797810 226831895#0 226831895#1 145087111#0 145087111#1 145087111#2 1263432701 770797793 313048179#4 313048179#5 619023262#0 619023262#1 619023262#2 154878302 27494654"/>
        </routeDistribution>
    </vehicle>
    <vehicle id="15" type="thesis_car" depart="11.25" departLane="best" departSpeed="max">
        <routeDistribution>
            <route cost="171.97" probability="0.49237428" edges="706539634#0 706539634#1 706539634#2 706539634#3 706539634#4 28997044#0 28997044#1 238981582#1 238981582#1-AddedOffRampEdge 4940288 748795286 747951006 1341838020#0 1341838017 747951000#2 705074764 749853681 1071797939 705074770 29127362 746559634 705076646#1 705076645 705076644 705076639#0 223089274#1 23370476 27260193 -1065726171#1 -1065726171#0 -226831899#2 -226831899#1 29001191#0 29001191#1 797810631 800662538#0 800662538#1 800662538#2 1362795132#0 1362795132#1 1362795132#3 1362795132#4 1072980033#0 1072980033#1 101476578#1 101476578#2 101476578#3 101476578#4 -101476579 -23296736#0 23296775"/>
            <route cost="168.92" probability="0.50762572" edges="706539634#0 706539634#1 706539634#2 706539634#3 28997011#4 -28996820#2 28997044#1 238981582#1 238981582#1-AddedOffRampEdge 4940288 748795286 747951006 1341838020#0 1341838017 747951000#2 705074764 749853681 1071797939 705074770 29127362 746559634 705076646#1 705076645 705076644 705076639#0 223089274#1 23370476 27260193 -1065726171#1 -184852736#1 -184852736#0 1272650818 800662538#0 800662538#1 800662538#2 1362795132#0 1362795132#1 1362795132#3 1362795132#4 1072980033#0 1072980033#1 101476578#1 101476578#2 101476578#3 101476578#4 -101476579 -23296736#0 23296775"/>
        </routeDistribution>
    </vehicle>
    <vehicle id="16" type="thesis_car" depart="12.00" departLane="best" departSpeed="max">
        <routeDistribution>
            <route cost="43.72" probability="0.49977831" edges="-28997018#3 -28997018#2 -706539634#2 28996992#2 28996820#5 28996820#6 174398014#0 174398014#1 174398012#1 28996932#0 28996932#1 28996932#2 -28996932#2"/>
            <route cost="43.63" probability="0.50022169" edges="-28997018#3 -28997018#2 -28997018#1 28996820#4 28996820#5 28996820#6 174398014#0 174398014#1 174398012#1 28996932#0 28996932#1 28996932#2 -28996932#2"/>
        </routeDistribution>
    </vehicle>
    <vehicle id="17" type="thesis_car" depart="12.75" departLane="best" departSpeed="max">
        <routeDistribution>
            <route cost="67.85" probability="1.00000000" edges="-23296775 23296736#0 101476579 561395730#0 561395730#1 -23296743#3 -28996500#0"/>
        </routeDistribution>
    </vehicle>
    <vehicle id="18" type="thesis_car" depart="13.50" departLane="best" departSpeed="max">
        <routeDistribution>
            <route cost="185.40" probability="1.00000000" edges="28539908 800671112#0 800671112#1 800671112#2 -28539974#0 28539702#9 28539702#10 28539702#11 747228988 747333148#0 747228984#1 747232923 747228976#1 425382120 -746807318#0 -745055575#2 -745055575#1 745055571#1 747854796 747854793 1436005548 747854794#0 747854794#1 135048805#1 135048805#2 1292168032 453672430 27494627 33424707 619023263 -1274179998#0 -28997011#4 -706539634#3 -706539634#2 -706539634#1 -706539634#0"/>
        </routeDistribution>
    </vehicle>
    <vehicle id="19" type="thesis_car" depart="14.25" departLane="best" departSpeed="max">
        <routeDistribution>
            <route cost="168.14" probability="0.49817350" edges="1057272193#0 1057272193#1 1057272193#2 1057272193#3 1057272193#5 711231847#0 711231847#1 711231847#2 711231847#3 711231847#4 822062850#0 822062850#1 711231844#1 204841602#2 204841602#3 204841602#4 1057272191#0 339318044#0 339318044#1 746791797 746811049#0 746811049#1 746981175#0 746981175#1 747854796 747854793 1436005548 747854794#0 747854794#1 135048805#1 135048805#2 1292168032 453672430 126310265 453672432#0 453672432#1 942479700 1067217032 4940313#1 -229492741#1 -229492741#0 -28553959#7 -28553959#6 -28553959#5 -28553959#3 -1411148250 28553544#8 28553554#0 28553554#1 28553554#2 28553554#4 -183688028#10 -183688028#9 -183688028#8 -183688028#7 -183688028#6 -28553616"/>
            <route cost="167.41" probability="0.50182650" edges="1057272193#0 1057272193#1 1057272193#2 1057272193#3 1057272193#5 711231847#0 711231847#1 711231847#2 711231847#3 711231847#4 822062850#0 822062850#1 711231844#1 204841602#2 204841602#3 204841602#4 1057272191#0 339318044#0 339318044#1 746791797 746811049#0 746811049#1 746981175#0 746981175#1 747854796 747854793 1436005548 747854794#0 747854794#1 135048805#1 135048805#2 1292168032 453672430 126310265 453672432#0 453672432#1 942479700 1067217032 4940313#1 -229492741#1 -229492741#0 -28553959#7 -28553959#6 -28553959#5 -28553941#2 28553544#6 28553544#7 28553544#8 28553554#0 28553554#1 28553554#2 28553554#4 -183688028#10 -183688028#9 -183688028#8 -183688028#7 -183688028#6 -28553616"/>
        </routeDistribution>
    </vehicle>
    <vehicle id="20" type="thesis_car" depart="15.00" departLane="best" departSpeed="max">
        <routeDistribution>
            <route cost="114.22" probability="0.49505653" edges="-4940135 745492922 313318795#0 313318795#1 32488340#1 1341806867 208149441#0 814837399#1 814837416#1 945694569#1 747175703#0 747175704#1 745542369#1 750563077 749858672#1 744649710 1212501346 744645401#1 747939435 747939432 184852743#0 184852743#1 747939433#1 747217017#0 184852741#1 747853028#1 747447020#0 747447020#1 747447020#2 747853024#1 747853024#2 747853025#1 747853025#2 747853025#3 -747853023#0 -749518015#0 -27260010 -749518016 -749508466#1 749508466#1 749518016 27260010 749518015#0 747853023#0"/>
            <route cost="112.24" probability="0.50494347" edges="-4940135 745492922 313318795#0 313318795#1 32488340#1 1341806867 208149441#0 814837399#1 814837416#1 945694569#1 747175703#0 747175704#1 745542369#1 750563077 749858672#1 744649710 1212501346 744645404#1 51355540#1 744944963#1 744944972#1 323726178#1 746653783#1 -746660481#0 -174398025#2 -174398025#0 -1212506817#1 -747853023#0 -749518015#0 -27260010 -749518016 -749508466#1 749508466#1 749518016 27260010 749518015#0 747853023#0"/>
        </routeDistribution>
    </vehicle>
    <vehicle id="21" type="thesis_car" depart="15.75" departLane="best" departSpeed="max">
        <routeDistribution>
            <route cost="152.83" probability="2.00000000" edges="28553544#0 28553544#1 28553544#2 28553544#3 28553544#5 28553941#2 28553959#5 28553959#6 28553959#7 229492741#0 229492741#1 4940313#2 4940313#3 4940313#4 747447032#0 747447032#1 746811872#1 746811872#2 453672431 746811873 1271657634#1 135048801#0 135048801#1 135048803#1 135048803#2 135048803#3 135048803#4 135048803#5 135048803#6 705065740#0 705065740#1 568142846#0 568142846#1 568142851#0 568142851#1 568142851#2 568142851#3 568142851#4 1057272192#0 1057272192#1 1057272192#2 27274182#0 28535728#0 -27274191#3 -27274191#2 -27274191#1 27274186"/>
        </routeDistribution>
    </vehicle>
    <vehicle id="22" type="thesis_car" depart="16.50" departLane="best" departSpeed="max">
        <routeDistribution>
            <route cost="98.31" probability="1.00000000" edges="-28553959#9 229492741#0 229492741#1 4940313#2 4940313#3 4940313#4 747447032#0 747447032#1 746811872#1 746811872#2 453672431 746811873 622155130 1057272190 30794243 747335805 747228984#1 747232923 747228978#1 747228978#2 -1279816417 -746660481#0 -174398025#2 -174398025#0 -1212506817#1 -747447018#1 -747447018#0 -747447017#3 -747447017#2"/>
        </routeDistribution>
    </vehicle>
    <vehicle id="23" type="thesis_car" depart="17.25" departLane="best" departSpeed="max">
        <routeDistribution>