<?xml version="1.0" encoding="UTF-8"?>

<!-- generated on 2026-02-18T16:57:20.341309+08:00 by Eclipse SUMO marouter 1.25.0
<marouterConfiguration xmlns:xsi="http://www.w3.org/2001/XMLSchema-instance" xsi:noNamespaceSchemaLocation="http://sumo.dlr.de/xsd/marouterConfiguration.xsd">

    <input>
        <net-file value="c:\Users\otaku\Documents\Thesis\apriori_civiq\scenarios\bgc_full\final_map.net.xml"/>
        <route-files value="c:\Users\otaku\Documents\Thesis\apriori_civiq\scenarios\bgc_full\trips_med.xml"/>
    </input>

    <output>
        <output-file value="c:\Users\otaku\Documents\Thesis\apriori_civiq\scenarios\bgc_full\wardrop_routes_med.rou.xml"/>
    </output>

    <processing>
        <max-alternatives value="5"/>
        <assignment-method value="SUE"/>
    </processing>

    <report>
        <verbose value="true"/>
        <ignore-errors value="true"/>
    </report>

</marouterConfiguration>
-->

<routes xmlns:xsi="http://www.w3.org/2001/XMLSchema-instance" xsi:noNamespaceSchemaLocation="http://sumo.dlr.de/xsd/routes_file.xsd">
    <vehicle id="0" depart="0.00" departLane="best" departPos="random" departSpeed="max">
        <routeDistribution>
            <route cost="90.24" probability="0.49366748" edges="28997044#0 28996820#2 28996820#3 28996820#4 28996820#5 28996820#6 174398014#0 174398014#1 -174398012#0 174398009#2 -1292171267 -1292171266 -1292171264 -1292171263 -1292171262 -1292171261 -32906100 -749514001#1 32906098#1 747856742#1 32906108#0 32906108#1 1292162268#1 32906111 1292162269 1292162271 1292162272#0 -1292162272#0"/>
            <route cost="87.71" probability="0.50633252" edges="28997044#0 28997044#1 238981582#1 238981582#1-AddedOffRampEdge 4940288 748795286 747951006 1341838020#0 1341838023 174398016#1 749520368#1 748795306 184852741#1 747853028#1 747447020#0 747447020#1 747447020#2 747853024#1 747853024#2 747853025#1 747853025#2 747853025#3 -747447018#1 -747447018#0 -747447017#3 -747447017#2 -747447017#1 -747447017#0 -1280079388#1 -747009417 -1292162272#0"/>
        </routeDistribution>
    </vehicle>
    <vehicle id="1" depart="2.00" departLane="best" departPos="random" departSpeed="max">
        <routeDistribution>
            <route cost="147.15" probability="0.48196838" edges="747853024#2 747853025#1 747853025#2 747853025#3 -747853025#3 -747853025#2 -747853025#1 -747853025#0 -747853024#1 -747853024#0 -747447020#1 -747447020#0 -747853026#0 -747853027#0 -747217017#0 -747939433#1 -184852743#1 -184852743#0 744645402#1 747951018 1341838025 747937849 569219184 1341838019#0 1341838019#1 1341838019#2 748795299#0 748795299#1 139045450 139045450-AddedOffRampEdge 1298622263 619023262#0 -770814992 28995163#9 28995163#10 28995163#11 28995751#2 28995751#3 -145087111#2 -145087111#1 -145087111#0 -226831895#1 -226831895#0 -770797810 -226831894#3 -226831894#2 -226831894#0 23296743#1 23296743#2 -23296743#2"/>
            <route cost="139.93" probability="0.51803162" edges="747853024#2 747853025#1 747853025#2 747853025#3 -747853023#0 -749518015#0 -27260010 -749518016 -749508466#1 749508464#1 747951003#1 569219184 1341838019#0 1341838019#1 1341838019#2 748795299#0 748795299#1 139045450 139045450-AddedOffRampEdge 1298622263 619023262#0 -770814992 28995163#9 28995163#10 28995163#11 28995751#2 -491362473#2 -491362473#1 -491362473#0 23296777#2 23296777#3 -226831895#1 -226831895#0 -770797810 -226831894#3 -226831894#2 -226831894#0 23296743#1 23296743#2 -23296743#2"/>
        </routeDistribution>
    </vehicle>
    <vehicle id="2" depart="4.00" departLane="best" departPos="random" departSpeed="max">
        <routeDistribution>
            <route cost="209.02" probability="0.49743655" edges="183687544#0 183688028#2 183688028#3 183688028#4 183688028#5 183688028#6 183688028#7 183688028#8 183688028#9 183688028#10 -28553554#4 -28553554#2 -28553554#1 -28553554#0 -28553544#8 894539396 28553959#3 28553959#5 28553959#6 28553959#7 229492741#0 229492741#1 4940313#2 4940313#3 4940313#4 747447032#0 747447032#1 746811872#1 746811872#2 453672431 746811873 622155130 1057272190 30794243 747335805 747228984#1 747232923 747228978#1 747228978#2 747228979 1328707416 747228982#1 747228981#1 747228980 744949907 744944964 569215926 27788646#0 27788646#1 27788646#2 27788646#3 51355539#0 32906172#1 750570769#0 750570769#1 745542368#0 747175707#1 747175705#0 23395714#1 945694568#1 945694571#0 945694571#1 945694571#2 -814837410#1 4940257#1 4940257#2 4940257#3 -1314651742#1 -1314651742#0"/>
            <route cost="208.00" probability="0.50256345" edges="183687544#0 183688028#2 183688028#3 183688028#4 183688028#5 183688028#6 183688028#7 183688028#8 183688028#9 183688028#10 -28553554#4 -28553554#2 -28553554#1 -28553554#0 -28553544#8 -28553544#7 -28553544#6 28553941#2 28553959#5 28553959#6 28553959#7 229492741#0 229492741#1 4940313#2 4940313#3 4940313#4 747447032#0 747447032#1 746811872#1 746811872#2 453672431 746811873 622155130 1057272190 30794243 747335805 747228984#1 747232923 747228978#1 747228978#2 747228979 1328707416 747228982#1 747228981#1 747228980 744949907 744944964 569215926 27788646#0 27788646#1 27788646#2 27788646#3 51355539#0 32906172#1 750570769#0 750570769#1 745542368#0 747175707#1 747175705#0 23395714#1 945694568#1 945694571#0 945694571#1 945694571#2 -814837410#1 4940257#1 4940257#2 4940257#3 -1314651742#1 -1314651742#0"/>
        </routeDistribution>
    </vehicle>
    <vehicle id="3" depart="6.00" departLane="best" departPos="random" departSpeed="max">
        <routeDistribution>
            <route cost="92.59" probability="0.48342942" edges="-555335240#2 -555335240#1 -555335240#0 -1291931391 747856742#1 747009416#0 747009416#1 747009416#2 1280079388#1 747447017#0 747447017#1 747447017#2 747447017#3 747447018#0 747447018#1 -747853025#3 -747853025#2 -747853025#1 -747853025#0 -747853024#1 -747853024#0 -747447020#1 -747447020#0 -747853026#0 -747853027#0 -747217017#0 -747939433#1 -184852743#1 -184852743#0 744645402#1 747951018 1341838025 184852734 1341838024 747951000#2 705074764 749853681 1071797939 705074770 29127362 29127364 29127361 746559635 24957185#0 24957185#1"/>
            <route cost="85.96" probability="0.51657058" edges="-555335240#2 -555335240#1 -555335240#0 -1291931391 747856742#1 747009416#0 747009416#1 747009416#2 1280079388#1 747447017#0 747447017#1 747447017#2 747447017#3 747447018#0 747447018#1 -747853023#0 -749518015#0 -27260010 -749518016 -749508466#1 749508464#1 747951003#1 1341838017 747951000#2 705074764 749853681 1071797939 705074770 29127362 29127364 29127361 746559635 24957185#0 24957185#1"/>
        </routeDistribution>
    </vehicle>
    <vehicle id="4" depart="8.00" departLane="best" departPos="random" departSpeed="max">
        <routeDistribution>
            <route cost="152.31" probability="0.48342942" edges="-1292171266 -1292171264 -1292171263 -1292171262 -1292171261 -32906100 -749514001#1 32906098#1 747856742#1 747009416#0 747009416#1 747009416#2 1280079388#1 747447017#0 747447017#1 747447017#2 747447017#3 747447018#0 747447018#1 -747853025#3 -747853025#2 -747853025#1 -747853025#0 -747853024#1 -747853024#0 -747447020#1 -747447020#0 -747853026#0 -747853027#0 -747217017#0 -747939433#1 -184852743#1 -184852743#0 744645402#1 747951018 1341838025 184852734 1341838024 747951000#2 705074764 749853681 1071797939 705074770 29127362 746559634 705076646#1 705076645 705076644 705076639#0 55065363#1 705076648 744397364#1 744358479 744358480 1338912465 -35062147#1"/>
            <route cost="145.68" probability="0.51657058" edges="-1292171266 -1292171264 -1292171263 -1292171262 -1292171261 -32906100 -749514001#1 32906098#1 747856742#1 747009416#0 747009416#1 747009416#2 1280079388#1 747447017#0 747447017#1 747447017#2 747447017#3 747447018#0 747447018#1 -747853023#0 -749518015#0 -27260010 -749518016 -749508466#1 749508464#1 747951003#1 1341838017 747951000#2 705074764 749853681 1071797939 705074770 29127362 746559634 705076646#1 705076645 705076644 705076639#0 55065363#1 705076648 744397364#1 744358479 744358480 1338912465 -35062147#1"/>
        </routeDistribution>
    </vehicle>
    <vehicle id="5" depart="10.00" departLane="best" departPos="random" departSpeed="max">
        <routeDistribution>
            <route cost="272.59" probability="0.33456057" edges="319060501#1 272521440#0 745377174 744634701#1 32836580#0 744632164#1 744632165#1 1212501347#0 744645401#1 747939435 747939432 184852743#0 184852743#1 747939433#1 747217017#0 184852741#1 747853028#1 747447020#0 747447020#1 747447020#2 747853024#1 747853024#2 747853025#1 747853025#2 747853025#3 -747447018#1 -747447018#0 -747447017#3 -747447017#2 -747447017#1 -747447017#0 -1280079388#1 -747009417 -747854799#0 -747005528#1 135048805#1 135048805#2 1292168032 453672430 126310265 453672432#0 453672432#1 942479700 1067217032 4940313#1 4940313#2 4940313#3 4940313#4 747447032#0 747447032#1 746811872#1 746811872#2 453672431 746811873 1271657634#1 135048801#0 135048801#1 135048803#1 135048803#2 135048803#3 135048803#4 135048803#5 135048803#6 705065740#0 705065740#1 568142846#0 568142846#1 568142851#0 568142851#1 568142851#2 568142851#3 568142851#4 1057272192#0 1057272192#1 1057272192#2 835208043#1 835208043#2 835208043#3 28539575#1"/>
            <route cost="274.91" probability="0.32703816" edges="319060501#1 272521440#0 745377174 744634701#1 32836580#0 744632164#1 744632165#1 1212501347#0 744645404#1 51355540#1 744944963#1 744944967#1 744944962#0 747228971#1 747228973#1 747228973#2 1279816416 747232921#0 747228976#1 425382120 27260016 27260016-AddedOffRampEdge 1057272189 30794243 747335805 -747333148#0 -747228988 28539973 800671112#0 800671112#1 800671112#2 800671112#3 800671112#4 800671112#5 800671112#6 800671112#7 800671112#8 800671112#9 800671112#10 800671112#11 800671112#12 800671112#13 -987614114#0 -272735306#4 -272735306#3 -272735306#0 -272735305#0 -28539575#2 -28539575#1 28539575#1"/>
            <route cost="271.44" probability="0.33840126" edges="319060501#1 272521440#0 745377174 744634701#1 32836580#0 744632164#1 744632165#1 1212501347#0 744645404#1 51355540#1 744944963#1 744944972#1 323726178#1 746653783#1 -746660481#0 -174398025#2 -174398025#0 -1212506817#1 -747447018#1 -747447018#0 -747447017#3 -747447017#2 -747447017#1 -747447017#0 -1280079388#1 -747009417 -747854799#0 -747005528#1 135048805#1 135048805#2 1292168032 453672430 126310265 453672432#0 453672432#1 942479700 1067217032 4940313#1 4940313#2 4940313#3 4940313#4 747447032#0 747447032#1 746811872#1 746811872#2 453672431 746811873 1271657634#1 135048801#0 135048801#1 135048803#1 135048803#2 135048803#3 135048803#4 135048803#5 135048803#6 705065740#0 705065740#1 568142846#0 568142846#1 568142851#0 568142851#1 568142851#2 568142851#3 568142851#4 1057272192#0 1057272192#1 1057272192#2 835208043#1 835208043#2 835208043#3 28539575#1"/>
        </routeDistribution>
    </vehicle>
    <vehicle id="6" depart="12.00" departLane="best" departPos="random" departSpeed="max">
        <routeDistribution>
            <route cost="39.43" probability="1.00000000" edges="-586354143 -1214459846 -339540802#3 -339540802#2 -339540802#1 -339540802#0 -987633851 28553554#4 28553554#5 28553554#7 28553554#8 28553554#10"/>
        </routeDistribution>
    </vehicle>
    <vehicle id="7" depart="14.00" departLane="best" departPos="random" departSpeed="max">
        <routeDistribution>
            <route cost="67.98" probability="0.49949606" edges="744645401#1 747939435 747939432 744645402#1 747951018 1341838025 184852734 1341838024 747951000#2 705074764 749853681 1071797939 705074770 29127362 746559634 705076646#1 705076645 705076644 705076639#0 223089274#1 23370476 27260193 -1065726171#1 -1065726171#0 -1065726174"/>
            <route cost="67.78" probability="0.50050394" edges="744645401#1 747939435 747939432 744645402#1 747951018 1341838025 747937849 1341838017 747951000#2 705074764 749853681 1071797939 705074770 29127362 746559634 705076646#1 705076645 705076644 705076639#0 223089274#1 23370476 27260193 -1065726171#1 -1065726171#0 -1065726174"/>
        </routeDistribution>
    </vehicle>
    <vehicle id="8" depart="16.00" departLane="best" departPos="random" departSpeed="max">
        <routeDistribution>
            <route cost="209.30" probability="0.33527633" edges="744634701#1 32836580#0 744632164#1 744632165#1 1212501347#0 744645401#1 747939435 747939432 184852743#0 184852743#1 747939433#1 747217017#0 184852741#1 747853028#1 747447020#0 747447020#1 747447020#2 747853024#1 747853024#2 747853025#1 747853025#2 747853025#3 -747447018#1 -747447018#0 -747447017#3 -747447017#2 -747447017#1 -747447017#0 -1280079388#1 -747009417 -747854799#0 -747005528#1 135048805#1 135048805#2 1292168032 453672430 126310265 453672432#0 453672432#1 942479700 1067217032 4940313#1 -229492741#1 -229492741#0 -28553959#7 -28553959#6 -28553959#5 -28553941#2 28553544#6 28553544#7 28553544#8 28553554#0 28553554#1 28553554#2 28553554#4 28553554#5 28553554#7 28553554#8 28553554#10 440588496#0 440588496#1 440588496#2"/>
            <route cost="212.23" probability="0.32561712" edges="744634701#1 32836580#0 744632164#1 744632165#1 1212501347#0 744645404#1 51355540#1 744944963#1 744944972#1 323726178#1 746653783#1 746785988 940883142 746785986#1 745055572 1415095562#0 745055571#1 747854796 747854793 1436005548 747854794#0 747854794#1 135048805#1 135048805#2 1292168032 453672430 126310265 453672432#0 453672432#1 942479700 1067217032 4940313#1 -229492741#1 -229492741#0 -28553959#7 -28553959#6 -28553959#5 -28553959#3 -1411148250 28553544#8 28553554#0 28553554#1 28553554#2 28553554#4 28553554#5 28553554#7 28553554#8 28553554#10 440588496#0 440588496#1 440588496#2"/>
            <route cost="208.16" probability="0.33910655" edges="744634701#1 32836580#0 744632164#1 744632165#1 1212501347#0 744645404#1 51355540#1 744944963#1 744944972#1 323726178#1 746653783#1 -746660481#0 -174398025#2 -174398025#0 -1212506817#1 -747447018#1 -747447018#0 -747447017#3 -747447017#2 -747447017#1 -747447017#0 -1280079388#1 -747009417 -747854799#0 -747005528#1 135048805#1 135048805#2 1292168032 453672430 126310265 453672432#0 453672432#1 942479700 1067217032 4940313#1 -229492741#1 -229492741#0 -28553959#7 -28553959#6 -28553959#5 -28553941#2 28553544#6 28553544#7 28553544#8 28553554#0 28553554#1 28553554#2 28553554#4 28553554#5 28553554#7 28553554#8 28553554#10 440588496#0 440588496#1 440588496#2"/>
        </routeDistribution>
    </vehicle>
    <vehicle id="9" depart="18.00" departLane="best" departPos="random" departSpeed="max">
        <routeDistribution>
            <route cost="176.36" probability="0.33700185" edges="1212504575 744944960#0 744944972#1 323726178#1 746653783#1 -746660481#0 -174398025#2 -174398025#0 -1212506817#1 -747447018#1 -747447018#0 -747447017#3 -747447017#2 -747447017#1 -747447017#0 -1280079388#1 -747009417 -747854799#0 -747005528#1 135048805#1 135048805#2 1292168032 453672430 126310265 453672432#0 453672432#1 942479700 1067217032 4940313#1 -229492741#1 -229492741#0 -28553959#7 -28553959#6 -28553959#5 -28553941#2 28553544#6 28553544#7 28553544#8 28553554#0 28553554#1 28553554#2 987633851 339540802#0 28553902 -28553906"/>
            <route cost="180.07" probability="0.32477947" edges="1212504575 744944960#0 744944972#1 323726178#1 746653783#1 746785988 940883142 746785986#1 745055572 1415095562#0 745055571#1 747854796 747854793 1436005548 747854794#0 747854794#1 135048805#1 135048805#2 1292168032 453672430 126310265 453672432#0 453672432#1 942479700 1067217032 4940313#1 -229492741#1 -229492741#0 -28553959#7 -28553959#6 -28553959#5 -28553959#3 -1411148250 28553544#8 28553554#0 28553906 902907575 28553902 -28553906"/>
            <route cost="176.00" probability="0.33821868" edges="1212504575 744944960#0 744944972#1 323726178#1 746653783#1 -746660481#0 -174398025#2 -174398025#0 -1212506817#1 -747447018#1 -747447018#0 -747447017#3 -747447017#2 -747447017#1 -747447017#0 -1280079388#1 -747009417 -747854799#0 -747005528#1 135048805#1 135048805#2 1292168032 453672430 126310265 453672432#0 453672432#1 942479700 1067217032 4940313#1 -229492741#1 -229492741#0 -28553959#7 -28553959#6 -28553959#5 -28553941#2 28553544#6 28553544#7 28553544#8 28553554#0 28553906 902907575 28553902 -28553906"/>
        </routeDistribution>
    </vehicle>
    <vehicle id="10" depart="20.00" departLane="best" departPos="random" departSpeed="max">
        <routeDistribution>
            <route cost="119.93" probability="0.49268564" edges="814837413#1 945694571#0 945694571#1 945694571#2 1337669118#1 1337669118#2 705638349#0 705638794#1 705638793#0 705640585#1 1212474711 23395712#0 745521900 1212988287 223089274#1 23370476 27260193 -1065726171#1 -1065726171#0 -226831899#2 -226831899#1 29001191#0 29001191#1 797810631 800662538#0 800662538#1 800662538#2 1362795132#0 1362795132#1 1362795132#3 1362795132#4 1072980033#0"/>
            <route cost="117.01" probability="0.50731436" edges="814837413#1 945694571#0 945694571#1 945694571#2 1337669118#1 1337669118#2 705638349#0 705638794#1 705638793#0 705640585#1 1212474711 23395712#0 745521900 1212988287 223089274#1 23370476 27260193 -1065726171#1 -184852736#1 -184852736#0 1272650818 800662538#0 800662538#1 800662538#2 1362795132#0 1362795132#1 1362795132#3 1362795132#4 1072980033#0"/>
        </routeDistribution>
    </vehicle>
    <vehicle id="11" depart="22.00" departLane="best" departPos="random" departSpeed="max">
        <routeDistribution>
            <route cost="56.19" probability="1.00000000" edges="-23296771#2 23296771#2 23296748#1 23296748#2 -1008051258#3 -1008051258#2 -1008051258#1 -1008051258#0 -894172555 23296744#1 561395729#0 -23296768#1"/>
        </routeDistribution>
    </vehicle>
    <vehicle id="12" depart="24.00" departLane="best" departPos="random" departSpeed="max">
        <routeDistribution>
            <route cost="142.93" probability="0.49150299" edges="746423905#1 96489258#1 174398024#1 174398024#2 174398024#3 747228973#1 747228973#2 -1279816417 746785988 940883142 746785986#1 745055572 1415095562#0 745055571#1 747854796 747854793 1436005548 747854794#0 747854794#1 135048805#1 135048805#2 1292168032 453672430 126310265 453672432#0 453672432#1 942479700 1067217032 4940313#1 -229492741#1 -229492741#0 28553959#9"/>
            <route cost="139.53" probability="0.50849701" edges="746423905#1 96489258#1 174398024#1 174398024#2 174398024#3 747228973#1 747228973#2 -1279816417 -746660481#0 -174398025#2 -174398025#0 -1212506817#1 -747447018#1 -747447018#0 -747447017#3 -747447017#2 -747447017#1 -747447017#0 -1280079388#1 -747009417 -747854799#0 -747005528#1 135048805#1 135048805#2 1292168032 453672430 126310265 453672432#0 453672432#1 942479700 1067217032 4940313#1 -229492741#1 -229492741#0 28553959#9"/>
        </routeDistribution>
    </vehicle>
    <vehicle id="13" depart="26.00" departLane="best" departPos="random" departSpeed="max">
        <routeDistribution>
            <route cost="65.59" probability="0.49714133" edges="744640943#1 744640943#2 1212499372 1212499373#0 31764601#1 744632164#1 744632165#1 1212501347#0 744645401#1 747939435 747939432 184852743#0 184852743#1 747939433#1 747217017#0 184852741#1 747853028#1 747447020#0 747447020#1 747447020#2 747853024#1 747853024#2 747853025#1 747853025#2 747853025#3 -747447018#1 -747447018#0 -747447017#3 -747447017#2 -747447017#1 -747447017#0 -1280079388#1 54039517#1"/>
            <route cost="64.45" probability="0.50285867" edges="744640943#1 744640943#2 1212499372 1212499373#0 31764601#1 744632164#1 744632165#1 1212501347#0 744645404#1 51355540#1 744944963#1 744944972#1 323726178#1 746653783#1 -746660481#0 -174398025#2 -174398025#0 -1212506817#1 -747447018#1 -747447018#0 -747447017#3 -747447017#2 -747447017#1 -747447017#0 -1280079388#1 54039517#1"/>
        </routeDistribution>
    </vehicle>
    <vehicle id="14" depart="28.00" departLane="best" departPos="random" departSpeed="max">
        <routeDistribution>
            <route cost="140.43" probability="1.00000000" edges="28536354#0 28536354#1 28536448 28535728#2 777645897 -256587197 568142846#0 568142846#1 822062850#0 822062850#1 711231844#1 204841602#2 204841602#3 204841602#4 1057272191#0 339318044#0 339318044#1 746791797 746811049#0 746811049#1 746981175#0 746981175#1 747854796 747854793 1436005548 747854794#0 747854794#1 135048805#1 135048805#2 1292168032 453672430 27494627 33424707 619023263 1411747049 1411747047 238981582#0 -1275244963 -28997044#0 -897106072#1 897106072#1"/>
        </routeDistribution>
    </vehicle>
    <vehicle id="15" depart="30.00" departLane="best" departPos="random" departSpeed="max">
        <routeDistribution>
            <route cost="265.53" probability="0.49676459" edges="1341838019#1 1341838019#2 748795299#0 748795299#1 748795291 748795297 101376490 748795288 814837403#0 814837403#1 814837403#2 814837403#3 814837403#4 814073109 628567770 205976575#0 25006622 568874018#0 568874018#2 1212986029#0 705076640#1 705076643 425382125 568873737#0 568873737#1 746559636 29127361 746559635 24957185#0 24957185#1 705074769 705074768 29353862 747953561 747951002 747951014#0 744926194#1 744645399#0 744645404#1 51355540#1 744944963#1 744944967#1 744944962#0 747228971#1 747228973#1 747228973#2 1279816416 747232921#0 747228976#1 425382120 27260016 27260016-AddedOffRampEdge 1057272189 30794243 747335805 -747333148#0 -747228988 28539973 800671112#0 800671112#1 800671112#2 800671112#3 800671112#4 800671112#5 800671112#6 800671112#7 800671112#8 800671112#9 800671112#10 -28539946#1 -28539946#0 28539702#3 28539702#4 28539702#5"/>
            <route cost="264.24" probability="0.50323541" edges="1341838019#1 1341838019#2 748795299#0 748795299#1 748795291 748795297 101376490 748795288 814837403#0 814837403#1 814837403#2 814837403#3 814837403#4 814073109 628567770 205976575#0 25006622 568874018#0 568874018#2 1212986029#0 705076640#1 705076643 425382125 568873737#0 568873737#1 746559636 29127361 746559635 24957185#0 24957185#1 705074769 705074768 29353862 747953561 747951002 747951014#0 744926194#1 744645399#0 744645404#1 51355540#1 744944963#1 744944967#1 744944962#0 747228971#1 747228973#1 747228973#2 1279816416 747232921#0 747228976#1 425382120 27260016 27260016-AddedOffRampEdge 1057272189 30794243 747335805 -747333148#0 -747228988 28539973 800671112#0 800671112#1 800671112#2 800671112#3 800671112#4 800671112#5 800671112#6 241489940#2 28539915#0 28539915#1 28539915#2 28539915#3 -28539946#0 28539702#3 28539702#4 28539702#5"/>
        </routeDistribution>
    </vehicle>
    <vehicle id="16" depart="32.00" departLane="best" departPos="random" departSpeed="max">
        <routeDistribution>
            <route cost="203.48" probability="0.47612664" edges="745055576#2 746791799#2 -1415095562#0 -746785965 -746785985#0 -940883142 -746785988 -746660481#0 -174398025#2 -174398025#0 -1212506817#1 -747853025#3 -747853025#2 -747853025#1 -747853025#0 -747853024#1 -747853024#0 -747447020#1 -747447020#0 -747853026#0 -747853027#0 -747217017#0 -747939433#1 -184852743#1 -184852743#0 744645402#1 747951018 1341838025 184852734 1341838024 747951000#2 705074764 749853681 1071797939 705074770 29127362 746559634 705076646#1 705076645 705076644 705076639#0 223089274#1 23370476 27260193 -1065726171#1 -1065726171#0 -226831899#2 -226831899#1 29001191#0 29001191#1 797810631 800662538#0 800662538#1 800662538#2 1362795132#0 1362795132#1 1362795132#3 1362795132#4 1072980033#0 1072980033#1 101476578#1 101476578#2 101476578#3 101476578#4 -101476579 1072192654 145081389#0 28996007"/>
            <route cost="193.92" probability="0.52387336" edges="745055576#2 746791799#2 -1415095562#0 -746785965 -746785985#0 -940883142 -746785988 -746660481#0 -174398025#2 -174398025#0 -1212506817#1 -747853023#0 -749518015#0 -27260010 -749518016 -749508466#1 749508464#1 747951003#1 1341838017 747951000#2 705074764 749853681 1071797939 705074770 29127362 746559634 705076646#1 705076645 705076644 705076639#0 223089274#1 23370476 27260193 -1065726171#1 -184852736#1 -184852736#0 1272650818 800662538#0 800662538#1 800662538#2 1362795132#0 1362795132#1 1362795132#3 1362795132#4 1072980033#0 1072980033#1 101476578#1 101476578#2 101476578#3 101476578#4 -101476579 1072192654 145081389#0 28996007"/>
        </routeDistribution>
    </vehicle>
    <vehicle id="17" depart="34.00" departLane="best" departPos="random" departSpeed="max">
        <routeDistribution>
            <route cost="142.60" probability="1.00000000" edges="746811049#1 746981175#0 746981175#1 -746796938#0 745055575#1 745055575#2 746807318#0 27260016 27260016-AddedOffRampEdge 1057272189 30794243 747335805 -747333148#0 -747228988 28539973 800671112#0 800671112#1 800671112#2 800671112#3 800671112#4 800671112#5 800671112#6 800671112#7 800671112#8 800671112#9 800671112#10 28539946#2"/>
        </routeDistribution>
    </vehicle>
    <vehicle id="18" depart="36.00" departLane="best" departPos="random" departSpeed="max">
        <routeDistribution>
            <route cost="140.50" probability="1.00000000" edges="453672432#0 453672432#1 942479700 1067217032 4940313#1 4940313#2 4940313#3 4940313#4 747447032#0 747447032#1 746811872#1 746811872#2 453672431 746811873 622155130 1057272190 30794243 747335805 747228984#1 747232923 747228978#1 747228978#2 747228979 1328707416 747228982#1 747228981#1 747228980 744949907 744944964 569215926 27788646#0 27788646#1 27788646#2 27788646#3 51355539#0 32906172#1 750570769#0 750570769#1 745542368#0 547165589 745542370#0 110280206#1 110280206#2 814837420#0 814837420#1 814837420#2 -15089975"/>
        </routeDistribution>
    </vehicle>
    <vehicle id="19" depart="38.00" departLane="best" departPos="random" departSpeed="max">
        <routeDistribution>
            <route cost="189.02" probability="1.00000000" edges="-706539634#1 706539634#1 28996992#2 28996820#5 28996820#6 174398014#0 174398014#1 -174398012#0 174398009#2 -1292171267 -1292171266 -1292171264 -1292171263 -1292171262 -1292171261 -32906100 -749514001#1 32906098#1 747856742#1 32906108#0 32906108#1 745055567#1 747854798#0 -747005528#1 135048805#1 135048805#2 1292168032 453672430 126310265 453672432#0 453672432#1 942479700 1067217032 4940313#1 4940313#2 4940313#3 4940313#4 792388510#0 792388510#1 -1280086013 -792388510#0"/>
        </routeDistribution>
    </vehicle>
    <vehicle id="20" depart="40.00" departLane="best" departPos="random" departSpeed="max">
        <routeDistribution>
            <route cost="300.51" probability="0.49971143" edges="28997011#2 28997011#3 -706539634#3 -28997018#1 28996820#4 28996820#5 28996820#6 174398014#0 174398014#1 -174398012#0 174398009#2 -1292171267 -1292171266 -1292171264 -1292171263 -1292171262 -1292171261 -32906100 -749514001#1 32906098#1 747856742#1 32906108#0 32906108#1 745055567#1 747854798#0 -747005528#1 135048805#1 135048805#2 1292168032 453672430 126310265 453672432#0 453672432#1 942479700 1067217032 4940313#1 4940313#2 4940313#3 4940313#4 747447032#0 747447032#1 746811872#1 746811872#2 453672431 746811873 1271657634#1 135048801#0 135048801#1 135048803#1 135048803#2 135048803#3 135048803#4 135048803#5 135048803#6 705065740#0 705065740#1 568142846#0 568142846#1 568142851#0 568142851#1 568142851#2 568142851#3 568142851#4 1057272192#0 1057272192#1 1057272192#2 27274182#0 28535728#0 28535728#1 28535728#2 28535728#3 28536226 1292156080"/>
            <route cost="300.40" probability="0.50028857" edges="28997011#2 -28996987#2 -28997018#2 -28997018#1 28996820#4 28996820#5 28996820#6 174398014#0 174398014#1 -174398012#0 174398009#2 -1292171267 -1292171266 -1292171264 -1292171263 -1292171262 -1292171261 -32906100 -749514001#1 32906098#1 747856742#1 32906108#0 32906108#1 745055567#1 747854798#0 -747005528#1 135048805#1 135048805#2 1292168032 453672430 126310265 453672432#0 453672432#1 942479700 1067217032 4940313#1 4940313#2 4940313#3 4940313#4 747447032#0 747447032#1 746811872#1 746811872#2 453672431 746811873 1271657634#1 135048801#0 135048801#1 135048803#1 135048803#2 135048803#3 135048803#4 135048803#5 135048803#6 705065740#0 705065740#1 568142846#0 568142846#1 568142851#0 568142851#1 568142851#2 568142851#3 568142851#4 1057272192#0 1057272192#1 1057272192#2 27274182#0 28535728#0 28535728#1 28535728#2 28535728#3 28536226 1292156080"/>
        </routeDistribution>
    </vehicle>
    <vehicle id="21" depart="42.00" departLane="best" departPos="random" departSpeed="max">
        <routeDistribution>
            <route cost="226.77" probability="0.33527590" edges="1314651743 814837406 746584499#1 4940259#1 4940259#2 4940259#4 4940259#5 4940259#6 746584498#1 746584498#2 814837413#1 814837416#1 945694569#1 747175703#0 747175704#1 745542369#1 750563077 749858672#1 744649710 1212501346 744645401#1 747939435 747939432 184852743#0 184852743#1 747939433#1 747217017#0 184852741#1 747853028#1 747447020#0 747447020#1 747447020#2 747853024#1 747853024#2 747853025#1 747853025#2 747853025#3 -747447018#1 -747447018#0 -747447017#3 -747447017#2 -747447017#1 -747447017#0 -1280079388#1 -747009417 -747854799#0 -747005528#1 135048805#1 135048805#2 1292168032 453672430 126310265 453672432#0 453672432#1 942479700 1067217032 4940313#1 -229492741#1 -229492741#0 -28553959#7 -28553959#6 -28553959#5 -28553941#2 28553544#6 28553544#7 28553544#8 28553554#0 28553554#1 28553554#2 28553554#4 28553554#5 28553554#7 28553554#8 28553554#10 440588496#0 440588496#1 -440588496#1"/>